data_image0
_chemical_formula_structural       Fe12V24O84Li12
_chemical_formula_sum              "Fe12 V24 O84 Li12"
_cell_length_a       13.68623996992112
_cell_length_b       8.31746448576764
_cell_length_c       14.61560888109066
_cell_angle_alpha    90.0
_cell_angle_beta     96.5497389180829
_cell_angle_gamma    90.0

_space_group_name_H-M_alt    "P 1"
_space_group_IT_number       1

loop_
  _space_group_symop_operation_xyz
  'x, y, z'

loop_
  _atom_site_type_symbol
  _atom_site_label
  _atom_site_symmetry_multiplicity
  _atom_site_fract_x
  _atom_site_fract_y
  _atom_site_fract_z
  _atom_site_occupancy
  Fe  Fe1       1.0  0.4978920279966155  0.8004168226863889  0.37110388300875863  1.0000
  Fe  Fe2       1.0  0.4978920279966159  0.19958317731361097  0.8711038830087586  1.0000
  Fe  Fe3       1.0  0.9978920279966149  0.3004168226863894  0.3711038830087585  1.0000
  Fe  Fe4       1.0  0.9978920279966169  0.6995831773136114  0.8711038830087589  1.0000
  Fe  Fe5       1.0  0.849627694426492  0.8216147559503174  0.5397085044640422  1.0000
  Fe  Fe6       1.0  0.8496276944264921  0.1783852440496827  0.0397085044640419  1.0000
  Fe  Fe7       1.0  0.3496276944264935  0.3216147559503173  0.5397085044640418  1.0000
  Fe  Fe8       1.0  0.3496276944264933  0.6783852440496825  0.039708504464041956  1.0000
  Fe  Fe9       1.0  0.7014556923510974  0.3048951117473745  0.7094907458566195  1.0000
  Fe  Fe10      1.0  0.7014556923510974  0.6951048882526264  0.20949074585661973  1.0000
  Fe  Fe11      1.0  0.20145569235109778  0.8048951117473744  0.7094907458566186  1.0000
  Fe  Fe12      1.0  0.20145569235109792  0.19510488825262592  0.20949074585661975  1.0000
  V   V1        1.0  0.4231079226774085  0.02746423956958441  0.17757229300340713  1.0000
  V   V2        1.0  0.42310792267740827  0.9725357604304145  0.6775722930034073  1.0000
  V   V3        1.0  0.9231079226774088  0.5274642395695841  0.1775722930034073  1.0000
  V   V4        1.0  0.9231079226774078  0.4725357604304159  0.6775722930034078  1.0000
  V   V5        1.0  0.7025537047070491  0.963459405143328  0.35541746660712203  1.0000
  V   V6        1.0  0.7025537047070493  0.03654059485667247  0.8554174666071224  1.0000
  V   V7        1.0  0.20255370470705014  0.463459405143328  0.355417466607122  1.0000
  V   V8        1.0  0.2025537047070501  0.5365405948566717  0.8554174666071219  1.0000
  V   V9        1.0  0.5737842326915884  0.4593432989645538  0.5164680856552822  1.0000
  V   V10       1.0  0.5737842326915888  0.5406567010354473  0.016468085655281812  1.0000
  V   V11       1.0  0.07378423269158906  0.9593432989645537  0.5164680856552823  1.0000
  V   V12       1.0  0.07378423269158904  0.04065670103544651  0.01646808565528181  1.0000
  V   V13       1.0  0.6278992735765182  0.9566605482704355  0.5666021118365508  1.0000
  V   V14       1.0  0.6278992735765191  0.04333945172956569  0.06660211183655051  1.0000
  V   V15       1.0  0.12789927357651948  0.456660548270435  0.566602111836551  1.0000
  V   V16       1.0  0.12789927357651942  0.5433394517295653  0.06660211183655056  1.0000
  V   V17       1.0  0.2757437469817013  0.9720698801551454  0.40291138486748135  1.0000
  V   V18       1.0  0.2757437469817016  0.027930119844854016  0.9029113848674819  1.0000
  V   V19       1.0  0.7757437469817013  0.47206988015514595  0.4029113848674817  1.0000
  V   V20       1.0  0.7757437469817012  0.527930119844853  0.9029113848674816  1.0000
  V   V21       1.0  0.40659640792035345  0.460188612369562  0.2383548494007838  1.0000
  V   V22       1.0  0.4065964079203533  0.5398113876304385  0.7383548494007838  1.0000
  V   V23       1.0  0.9065964079203541  0.9601886123695608  0.23835484940078372  1.0000
  V   V24       1.0  0.9065964079203536  0.03981138763043808  0.7383548494007837  1.0000
  O   O1        1.0  0.4805566669258414  0.3218672417652269  0.4849330951507268  1.0000
  O   O2        1.0  0.48055666692584104  0.678132758234773  0.9849330951507267  1.0000
  O   O3        1.0  0.9805566669258404  0.8218672417652267  0.48493309515072686  1.0000
  O   O4        1.0  0.9805566669258403  0.17813275823477337  0.9849330951507266  1.0000
  O   O5        1.0  0.32527105401449624  0.15917184023933154  0.14820621922640156  1.0000
  O   O6        1.0  0.3252710540144957  0.8408281597606676  0.648206219226401  1.0000
  O   O7        1.0  0.8252710540144944  0.6591718402393318  0.14820621922640148  1.0000
  O   O8        1.0  0.8252710540144944  0.3408281597606689  0.648206219226401  1.0000
  O   O9        1.0  0.2358401455506013  0.9958375343085596  0.28650817716343896  1.0000
  O   O10       1.0  0.2358401455506017  0.004162465691439066  0.7865081771634393  1.0000
  O   O11       1.0  0.7358401455506013  0.49583753430856226  0.2865081771634387  1.0000
  O   O12       1.0  0.7358401455506015  0.504162465691439  0.7865081771634386  1.0000
  O   O13       1.0  0.39490684127309367  0.49157815880606215  0.11883562788732122  1.0000
  O   O14       1.0  0.394906841273093  0.5084218411939377  0.6188356278873212  1.0000
  O   O15       1.0  0.8949068412730922  0.9915781588060607  0.11883562788732117  1.0000
  O   O16       1.0  0.8949068412730944  0.008421841193938089  0.6188356278873217  1.0000
  O   O17       1.0  0.4299443429742839  0.640079293296892  0.29225760462580364  1.0000
  O   O18       1.0  0.42994434297428447  0.35992070670310733  0.7922576046258031  1.0000
  O   O19       1.0  0.9299443429742843  0.1400792932968932  0.2922576046258034  1.0000
  O   O20       1.0  0.9299443429742855  0.8599207067031076  0.7922576046258037  1.0000
  O   O21       1.0  0.3008330730054009  0.1572865087698196  0.4468465393673764  1.0000
  O   O22       1.0  0.3008330730054012  0.84271349123018  0.9468465393673772  1.0000
  O   O23       1.0  0.8008330730054006  0.6572865087698196  0.44684653936737606  1.0000
  O   O24       1.0  0.8008330730054003  0.34271349123018097  0.9468465393673767  1.0000
  O   O25       1.0  0.5270919998066941  0.8930358153148839  0.624472019590556  1.0000
  O   O26       1.0  0.527091999806694  0.10696418468511633  0.12447201959055529  1.0000
  O   O27       1.0  0.027091999806694966  0.39303581531488374  0.6244720195905553  1.0000
  O   O28       1.0  0.0270919998066949  0.6069641846851163  0.12447201959055527  1.0000
  O   O29       1.0  0.6231355172092791  0.7939685334645561  0.3064190417624454  1.0000
  O   O30       1.0  0.6231355172092783  0.20603146653544438  0.8064190417624462  1.0000
  O   O31       1.0  0.12313551720927883  0.2939685334645559  0.3064190417624449  1.0000
  O   O32       1.0  0.12313551720927893  0.7060314665354439  0.806419041762446  1.0000
  O   O33       1.0  0.590554059066371  0.9694174569111115  0.4432188966049247  1.0000
  O   O34       1.0  0.590554059066371  0.030582543088888813  0.943218896604926  1.0000
  O   O35       1.0  0.09055405906637105  0.46941745691111153  0.4432188966049251  1.0000
  O   O36       1.0  0.09055405906637128  0.5305825430888894  0.9432188966049263  1.0000
  O   O37       1.0  0.6711516627776376  0.14022967555384155  0.30886946930976533  1.0000
  O   O38       1.0  0.6711516627776385  0.8597703244461592  0.8088694693097661  1.0000
  O   O39       1.0  0.17115166277763857  0.6402296755538416  0.30886946930976533  1.0000
  O   O40       1.0  0.1711516627776388  0.35977032444615886  0.8088694693097661  1.0000
  O   O41       1.0  0.6638068307941696  0.1400210745683616  0.6093471274772  1.0000
  O   O42       1.0  0.663806830794169  0.8599789254316393  0.10934712747720128  1.0000
  O   O43       1.0  0.1638068307941701  0.6400210745683615  0.6093471274772014  1.0000
  O   O44       1.0  0.16380683079417033  0.35997892543163873  0.10934712747720118  1.0000
  O   O45       1.0  0.6746207107050112  0.39069415343539243  0.4576623894967646  1.0000
  O   O46       1.0  0.6746207107050103  0.6093058465646077  0.9576623894967642  1.0000
  O   O47       1.0  0.17462071070501106  0.8906941534353925  0.4576623894967647  1.0000
  O   O48       1.0  0.17462071070501095  0.10930584656460816  0.9576623894967649  1.0000
  O   O49       1.0  0.2925538369601269  0.3793806558080045  0.2773244431855521  1.0000
  O   O50       1.0  0.29255383696012727  0.6206193441919959  0.7773244431855518  1.0000
  O   O51       1.0  0.7925538369601273  0.8793806558080041  0.2773244431855523  1.0000
  O   O52       1.0  0.7925538369601267  0.12061934419199581  0.7773244431855517  1.0000
  O   O53       1.0  0.5018550745998251  0.33567896840743094  0.2698386150632753  1.0000
  O   O54       1.0  0.5018550745998253  0.664321031592569  0.7698386150632751  1.0000
  O   O55       1.0  0.0018550745998251938  0.8356789684074304  0.26983861506327544  1.0000
  O   O56       1.0  0.0018550745998251615  0.16432103159256956  0.7698386150632751  1.0000
  O   O57       1.0  0.45358559102950785  0.999406055351404  0.2947944739002578  1.0000
  O   O58       1.0  0.453585591029508  0.000593944648597633  0.7947944739002585  1.0000
  O   O59       1.0  0.9535855910295074  0.49940605535140414  0.2947944739002573  1.0000
  O   O60       1.0  0.9535855910295088  0.5005939446485962  0.7947944739002587  1.0000
  O   O61       1.0  0.5407202180353031  0.6456114960124769  0.4744599416645349  1.0000
  O   O62       1.0  0.5407202180353027  0.35438850398752386  0.9744599416645358  1.0000
  O   O63       1.0  0.04072021803530312  0.14561149601247672  0.47445994166453515  1.0000
  O   O64       1.0  0.04072021803530311  0.8543885039875226  0.9744599416645348  1.0000
  O   O65       1.0  0.3982515253747342  0.8469210390722416  0.12833869595605915  1.0000
  O   O66       1.0  0.39825152537473424  0.15307896092775822  0.6283386959560594  1.0000
  O   O67       1.0  0.898251525374734  0.346921039072242  0.12833869595605912  1.0000
  O   O68       1.0  0.8982515253747336  0.6530789609277583  0.6283386959560595  1.0000
  O   O69       1.0  0.7859511593737336  0.9924046114782321  0.4552467005334912  1.0000
  O   O70       1.0  0.785951159373734  0.007595388521768273  0.9552467005334908  1.0000
  O   O71       1.0  0.28595115937373394  0.49240461147823156  0.45524670053349114  1.0000
  O   O72       1.0  0.285951159373734  0.5075953885217683  0.9552467005334916  1.0000
  O   O73       1.0  0.6152098334050242  0.46228422942185954  0.6339201646514465  1.0000
  O   O74       1.0  0.6152098334050242  0.5377157705781409  0.1339201646514459  1.0000
  O   O75       1.0  0.11520983340502465  0.9622842294218594  0.6339201646514473  1.0000
  O   O76       1.0  0.11520983340502454  0.03771577057814061  0.13392016465144593  1.0000
  O   O77       1.0  0.3739846810641951  0.8419745291780821  0.43301112023397786  1.0000
  O   O78       1.0  0.3739846810641953  0.15802547082191756  0.9330111202339787  1.0000
  O   O79       1.0  0.8739846810641951  0.3419745291780824  0.43301112023397825  1.0000
  O   O80       1.0  0.8739846810641951  0.6580254708219179  0.933011120233979  1.0000
  O   O81       1.0  0.717342946056238  0.8171223216845931  0.5959009516969571  1.0000
  O   O82       1.0  0.7173429460562386  0.18287767831540672  0.09590095169695592  1.0000
  O   O83       1.0  0.21734294605623836  0.3171223216845937  0.5959009516969564  1.0000
  O   O84       1.0  0.21734294605623822  0.6828776783154067  0.09590095169695584  1.0000
  Li  Li1       1.0  0.6359824906809299  0.6665478909512771  0.7203417685952739  1.0000
  Li  Li2       1.0  0.6359824906809297  0.3334521090487233  0.2203417685952734  1.0000
  Li  Li3       1.0  0.13598249068093016  0.16654789095127712  0.7203417685952739  1.0000
  Li  Li4       1.0  0.13598249068092993  0.8334521090487231  0.22034176859527327  1.0000
  Li  Li5       1.0  0.33913700660992446  0.3127884455548681  0.03366949895826317  1.0000
  Li  Li6       1.0  0.3391370066099245  0.6872115544451315  0.5336694989582633  1.0000
  Li  Li7       1.0  0.8391370066099245  0.8127884455548684  0.033669498958263155  1.0000
  Li  Li8       1.0  0.8391370066099245  0.18721155444513204  0.5336694989582632  1.0000
  Li  Li9       1.0  0.5244520293059051  0.18171026863919357  0.3747480931377302  1.0000
  Li  Li10      1.0  0.5244520293059056  0.8182897313608068  0.8747480931377293  1.0000
  Li  Li11      1.0  0.02445202930590588  0.681710268639193  0.37474809313773033  1.0000
  Li  Li12      1.0  0.024452029305905846  0.3182897313608064  0.8747480931377293  1.0000
