data_image0
_chemical_formula_structural       Fe12V24O84Li12
_chemical_formula_sum              "Fe12 V24 O84 Li12"
_cell_length_a       13.276867581776505
_cell_length_b       9.490931623781814
_cell_length_c       15.397816574825526
_cell_angle_alpha    90.00000000000001
_cell_angle_beta     68.95209984838935
_cell_angle_gamma    90.00000000000001

_space_group_name_H-M_alt    "P 1"
_space_group_IT_number       1

loop_
  _space_group_symop_operation_xyz
  'x, y, z'

loop_
  _atom_site_type_symbol
  _atom_site_label
  _atom_site_symmetry_multiplicity
  _atom_site_fract_x
  _atom_site_fract_y
  _atom_site_fract_z
  _atom_site_occupancy
  Fe  Fe1       1.0  0.5265233666462097  0.7612131446362974  0.40081245447297226  1.0000
  Fe  Fe2       1.0  0.5265233666462088  0.23878685536370178  0.9008124544729695  1.0000
  Fe  Fe3       1.0  0.026523366646211466  0.26121314463629797  0.40081245447297104  1.0000
  Fe  Fe4       1.0  0.026523366646207247  0.7387868553637015  0.9008124544729669  1.0000
  Fe  Fe5       1.0  0.8511753388396601  0.7673797388375979  0.5651412411546126  1.0000
  Fe  Fe6       1.0  0.8511753388396599  0.23262026116240284  0.06514124115461394  1.0000
  Fe  Fe7       1.0  0.3511753388396595  0.2673797388375965  0.565141241154613  1.0000
  Fe  Fe8       1.0  0.35117533883965896  0.7326202611624039  0.06514124115461391  1.0000
  Fe  Fe9       1.0  0.6541132405110168  0.282581143229011  0.6896704295587388  1.0000
  Fe  Fe10      1.0  0.6541132405110172  0.7174188567709918  0.1896704295587384  1.0000
  Fe  Fe11      1.0  0.15411324051101688  0.7825811432290084  0.6896704295587385  1.0000
  Fe  Fe12      1.0  0.1541132405110171  0.21741885677099002  0.1896704295587396  1.0000
  V   V1        1.0  0.3577447006479619  0.029731570709186337  0.2024796481485157  1.0000
  V   V2        1.0  0.35774470064796204  0.970268429290815  0.7024796481485152  1.0000
  V   V3        1.0  0.8577447006479612  0.529731570709186  0.20247964814851588  1.0000
  V   V4        1.0  0.8577447006479634  0.4702684292908136  0.7024796481485149  1.0000
  V   V5        1.0  0.7007249811357552  0.9907651520534222  0.34447352951107046  1.0000
  V   V6        1.0  0.7007249811357517  0.009234847946576726  0.8444735295110726  1.0000
  V   V7        1.0  0.20072498113575402  0.49076515205342347  0.3444735295110704  1.0000
  V   V8        1.0  0.20072498113575282  0.5092348479465773  0.8444735295110717  1.0000
  V   V9        1.0  0.5476322500851266  0.43645444249398924  0.5169976268934545  1.0000
  V   V10       1.0  0.5476322500851271  0.5635455575060099  0.016997626893454354  1.0000
  V   V11       1.0  0.04763225008512626  0.9364544424939901  0.5169976268934546  1.0000
  V   V12       1.0  0.04763225008512651  0.06354555750601047  0.016997626893454527  1.0000
  V   V13       1.0  0.6386358185351972  0.9781124389866827  0.5531607998214593  1.0000
  V   V14       1.0  0.638635818535197  0.021887561013315918  0.05316079982145829  1.0000
  V   V15       1.0  0.13863581853519596  0.47811243898668465  0.5531607998214587  1.0000
  V   V16       1.0  0.13863581853519627  0.5218875610133158  0.05316079982145868  1.0000
  V   V17       1.0  0.3203559496093507  0.9930073747779062  0.3996320000124745  1.0000
  V   V18       1.0  0.3203559496093503  0.006992625222090342  0.899632000012476  1.0000
  V   V19       1.0  0.8203559496093518  0.4930073747779097  0.39963200001247595  1.0000
  V   V20       1.0  0.8203559496093497  0.5069926252220903  0.8996320000124762  1.0000
  V   V21       1.0  0.4810230508047563  0.5083725126119075  0.22611742049975977  1.0000
  V   V22       1.0  0.48102305080475655  0.4916274873880934  0.7261174204997602  1.0000
  V   V23       1.0  0.9810230508047573  0.008372512611904748  0.2261174204997593  1.0000
  V   V24       1.0  0.9810230508047565  0.9916274873880936  0.7261174204997599  1.0000
  O   O1        1.0  0.4897709710366691  0.30754138458506314  0.46441663770013225  1.0000
  O   O2        1.0  0.48977097103666706  0.6924586154149381  0.9644166377001343  1.0000
  O   O3        1.0  0.9897709710366687  0.8075413845850631  0.464416637700134  1.0000
  O   O4        1.0  0.9897709710366684  0.1924586154149376  0.9644166377001347  1.0000
  O   O5        1.0  0.30376681300668135  0.1584552029049781  0.15260610706640135  1.0000
  O   O6        1.0  0.3037668130066819  0.8415447970950217  0.6526061070664009  1.0000
  O   O7        1.0  0.8037668130066817  0.6584552029049794  0.15260610706640113  1.0000
  O   O8        1.0  0.8037668130066824  0.3415447970950217  0.6526061070664  1.0000
  O   O9        1.0  0.24274435113693757  0.016206207647761373  0.31298150152277454  1.0000
  O   O10       1.0  0.24274435113693715  0.9837937923522405  0.812981501522775  1.0000
  O   O11       1.0  0.7427443511369396  0.5162062076477594  0.31298150152277354  1.0000
  O   O12       1.0  0.7427443511369377  0.48379379235223924  0.8129815015227753  1.0000
  O   O13       1.0  0.4247028507067163  0.5900695224388688  0.1218809690966565  1.0000
  O   O14       1.0  0.4247028507067174  0.4099304775611314  0.6218809690966561  1.0000
  O   O15       1.0  0.9247028507067161  0.09006952243886701  0.12188096909665613  1.0000
  O   O16       1.0  0.9247028507067158  0.9099304775611315  0.6218809690966552  1.0000
  O   O17       1.0  0.5085693379437489  0.6489889896531974  0.28937271999383773  1.0000
  O   O18       1.0  0.5085693379437467  0.3510110103468044  0.7893727199938391  1.0000
  O   O19       1.0  0.008569337943751032  0.14898898965319632  0.2893727199938374  1.0000
  O   O20       1.0  0.008569337943749034  0.8510110103468032  0.789372719993838  1.0000
  O   O21       1.0  0.32515037589326384  0.1307232815460428  0.46930701198709274  1.0000
  O   O22       1.0  0.3251503758932648  0.8692767184539566  0.9693070119870942  1.0000
  O   O23       1.0  0.8251503758932655  0.6307232815460431  0.46930701198709307  1.0000
  O   O24       1.0  0.825150375893265  0.3692767184539572  0.9693070119870901  1.0000
  O   O25       1.0  0.5008726807546201  0.9520202783346545  0.6211209939606085  1.0000
  O   O26       1.0  0.5008726807546214  0.04797972166534596  0.12112099396060746  1.0000
  O   O27       1.0  0.0008726807546194167  0.4520202783346541  0.621120993960607  1.0000
  O   O28       1.0  0.0008726807546197819  0.5479797216653453  0.12112099396060765  1.0000
  O   O29       1.0  0.6460128990815205  0.8345603072199149  0.2944433730308728  1.0000
  O   O30       1.0  0.6460128990815225  0.16543969278008477  0.7944433730308719  1.0000
  O   O31       1.0  0.14601289908152132  0.33456030721991525  0.2944433730308724  1.0000
  O   O32       1.0  0.14601289908152132  0.6654396927800846  0.7944433730308711  1.0000
  O   O33       1.0  0.595558490576723  0.9026890326629982  0.4534163454994655  1.0000
  O   O34       1.0  0.5955584905767244  0.09731096733699941  0.9534163454994654  1.0000
  O   O35       1.0  0.09555849057672434  0.4026890326630014  0.4534163454994656  1.0000
  O   O36       1.0  0.09555849057672423  0.5973109673369988  0.9534163454994635  1.0000
  O   O37       1.0  0.6527912890544143  0.13525686421957128  0.3102179531134615  1.0000
  O   O38       1.0  0.6527912890544126  0.8647431357804283  0.8102179531134605  1.0000
  O   O39       1.0  0.1527912890544144  0.6352568642195711  0.31021795311346123  1.0000
  O   O40       1.0  0.1527912890544148  0.36474313578042833  0.8102179531134602  1.0000
  O   O41       1.0  0.6573163226655644  0.14351605763400957  0.6023130507432244  1.0000
  O   O42       1.0  0.6573163226655644  0.8564839423659897  0.1023130507432249  1.0000
  O   O43       1.0  0.15731632266556517  0.6435160576340101  0.6023130507432244  1.0000
  O   O44       1.0  0.15731632266556547  0.3564839423659908  0.10231305074322494  1.0000
  O   O45       1.0  0.6892303133425984  0.38986863624665935  0.45870955464736857  1.0000
  O   O46       1.0  0.6892303133425984  0.6101313637533409  0.9587095546473693  1.0000
  O   O47       1.0  0.18923031334259802  0.8898686362466597  0.4587095546473678  1.0000
  O   O48       1.0  0.1892303133425975  0.11013136375334105  0.9587095546473673  1.0000
  O   O49       1.0  0.3381184636019005  0.4603191957488556  0.2730383344911335  1.0000
  O   O50       1.0  0.33811846360190034  0.5396808042511436  0.7730383344911343  1.0000
  O   O51       1.0  0.8381184636019035  0.9603191957488565  0.27303833449113296  1.0000
  O   O52       1.0  0.8381184636019008  0.03968080425114464  0.7730383344911322  1.0000
  O   O53       1.0  0.5311604791085456  0.3654811532428285  0.26173655448749894  1.0000
  O   O54       1.0  0.5311604791085452  0.634518846757171  0.7617365544874988  1.0000
  O   O55       1.0  0.031160479108545268  0.8654811532428275  0.26173655448749944  1.0000
  O   O56       1.0  0.031160479108545084  0.1345188467571712  0.7617365544874999  1.0000
  O   O57       1.0  0.4281024817848026  0.043279227415659  0.29286502750976157  1.0000
  O   O58       1.0  0.4281024817848037  0.956720772584341  0.7928650275097618  1.0000
  O   O59       1.0  0.9281024817848041  0.543279227415658  0.2928650275097618  1.0000
  O   O60       1.0  0.9281024817848029  0.4567207725843405  0.7928650275097616  1.0000
  O   O61       1.0  0.5310083461903583  0.6006161371243708  0.47731853045409045  1.0000
  O   O62       1.0  0.5310083461903587  0.39938386287562944  0.9773185304540899  1.0000
  O   O63       1.0  0.031008346190359203  0.10061613712437051  0.47731853045409006  1.0000
  O   O64       1.0  0.031008346190358867  0.8993838628756289  0.9773185304540898  1.0000
  O   O65       1.0  0.32697331862972756  0.8658752457151563  0.16304047773967373  1.0000
  O   O66       1.0  0.326973318629727  0.1341247542848435  0.6630404777396723  1.0000
  O   O67       1.0  0.8269733186297284  0.36587524571515734  0.1630404777396737  1.0000
  O   O68       1.0  0.8269733186297253  0.6341247542848428  0.6630404777396746  1.0000
  O   O69       1.0  0.7398819307737212  0.05321186000514988  0.44092583788033746  1.0000
  O   O70       1.0  0.7398819307737211  0.9467881399948499  0.940925837880339  1.0000
  O   O71       1.0  0.2398819307737211  0.5532118600051507  0.44092583788033785  1.0000
  O   O72       1.0  0.23988193077372158  0.4467881399948497  0.940925837880336  1.0000
  O   O73       1.0  0.6024566711122515  0.4469370306315231  0.6240035313964826  1.0000
  O   O74       1.0  0.6024566711122531  0.5530629693684774  0.12400353139648332  1.0000
  O   O75       1.0  0.10245667111225167  0.9469370306315242  0.6240035313964823  1.0000
  O   O76       1.0  0.10245667111225218  0.053062969368476154  0.12400353139648332  1.0000
  O   O77       1.0  0.38792385464097434  0.8453239659389798  0.42701330032534635  1.0000
  O   O78       1.0  0.3879238546409741  0.1546760340610192  0.9270133003253461  1.0000
  O   O79       1.0  0.8879238546409758  0.3453239659389807  0.42701330032534646  1.0000
  O   O80       1.0  0.8879238546409757  0.6546760340610215  0.9270133003253457  1.0000
  O   O81       1.0  0.7151512169416585  0.8575612273259927  0.5852301720559199  1.0000
  O   O82       1.0  0.7151512169416568  0.14243877267400848  0.08523017205592114  1.0000
  O   O83       1.0  0.21515121694165767  0.3575612273259922  0.5852301720559204  1.0000
  O   O84       1.0  0.215151216941658  0.6424387726740088  0.0852301720559211  1.0000
  Li  Li1       1.0  0.6814611082417714  0.6608694528801802  0.7709547435630748  1.0000
  Li  Li2       1.0  0.6814611082417702  0.33913054711982005  0.27095474356307475  1.0000
  Li  Li3       1.0  0.1814611082417697  0.1608694528801805  0.7709547435630757  1.0000
  Li  Li4       1.0  0.18146110824176956  0.8391305471198196  0.27095474356307464  1.0000
  Li  Li5       1.0  0.2621249733617693  0.27105776795795317  0.9864220440460073  1.0000
  Li  Li6       1.0  0.2621249733617699  0.7289422320420459  0.48642204404600675  1.0000
  Li  Li7       1.0  0.762124973361771  0.7710577679579527  0.986422044046007  1.0000
  Li  Li8       1.0  0.7621249733617708  0.2289422320420464  0.48642204404600675  1.0000
  Li  Li9       1.0  0.49666876393572157  0.19919412962925676  0.3449810511517838  1.0000
  Li  Li10      1.0  0.49666876393572224  0.8008058703707428  0.8449810511517813  1.0000
  Li  Li11      1.0  0.9966687639357222  0.699194129629258  0.3449810511517831  1.0000
  Li  Li12      1.0  0.9966687639357219  0.30080587037074374  0.8449810511517841  1.0000
