data_image0
_chemical_formula_structural       Li4Zr8P12O48
_chemical_formula_sum              "Li4 Zr8 P12 O48"
_cell_length_a       8.597742331111611
_cell_length_b       8.664079353711283
_cell_length_c       12.675639445805453
_cell_angle_alpha    90.0
_cell_angle_beta     95.5692601191125
_cell_angle_gamma    90.0

_space_group_name_H-M_alt    "P 1"
_space_group_IT_number       1

loop_
  _space_group_symop_operation_xyz
  'x, y, z'

loop_
  _atom_site_type_symbol
  _atom_site_label
  _atom_site_symmetry_multiplicity
  _atom_site_fract_x
  _atom_site_fract_y
  _atom_site_fract_z
  _atom_site_occupancy
  Li  Li1       1.0  0.17589084852753603  0.8428849096621285  0.06531646898399644  1.0000
  Li  Li2       1.0  0.6758908485275364  0.6571150903378712  0.5653164689839968  1.0000
  Li  Li3       1.0  0.8241091514724647  0.1571150903378713  0.9346835310160042  1.0000
  Li  Li4       1.0  0.32410915147246366  0.3428849096621283  0.43468353101600343  1.0000
  Zr  Zr1       1.0  0.721206379386864  0.008126308549584627  0.8258447965721369  1.0000
  Zr  Zr2       1.0  0.22120637938686466  0.49187369145041604  0.3258447965721366  1.0000
  Zr  Zr3       1.0  0.27879362061313545  0.9918736914504158  0.17415520342786348  1.0000
  Zr  Zr4       1.0  0.7787936206131357  0.5081263085495841  0.6741552034278633  1.0000
  Zr  Zr5       1.0  0.6900785118727792  0.47147926968245496  0.10898217358271343  1.0000
  Zr  Zr6       1.0  0.1900785118727795  0.02852073031754565  0.6089821735827138  1.0000
  Zr  Zr7       1.0  0.309921488127221  0.5285207303175444  0.8910178264172871  1.0000
  Zr  Zr8       1.0  0.8099214881272218  0.9714792696824551  0.39101782641728644  1.0000
  P   P1        1.0  0.9014965251280233  0.5141069675110035  0.8478864836095679  1.0000
  P   P2        1.0  0.40149652512802286  0.9858930324889983  0.34788648360956725  1.0000
  P   P3        1.0  0.0985034748719779  0.48589303248899635  0.15211351639043225  1.0000
  P   P4        1.0  0.5985034748719782  0.014106967511003526  0.6521135163904328  1.0000
  P   P5        1.0  0.9360155957398476  0.904298078545406  0.09638890964398612  1.0000
  P   P6        1.0  0.4360155957398471  0.5957019214545933  0.5963889096439867  1.0000
  P   P7        1.0  0.06398440426015364  0.09570192145459355  0.9036110903560133  1.0000
  P   P8        1.0  0.5639844042601534  0.4042980785454063  0.40361109035601367  1.0000
  P   P9        1.0  0.44608800587442915  0.7952217122907683  0.0045152694648044125  1.0000
  P   P10       1.0  0.9460880058744291  0.7047782877092322  0.5045152694648046  1.0000
  P   P11       1.0  0.5539119941255717  0.204778287709232  0.9954847305351952  1.0000
  P   P12       1.0  0.05391199412557114  0.29522171229076777  0.49548473053519576  1.0000
  O   O1        1.0  0.8231039149728403  0.030991182730417455  0.06367751276040096  1.0000
  O   O2        1.0  0.3231039149728396  0.4690088172695825  0.563677512760401  1.0000
  O   O3        1.0  0.1768960850271605  0.9690088172695823  0.9363224872395991  1.0000
  O   O4        1.0  0.6768960850271603  0.5309911827304176  0.4363224872395986  1.0000
  O   O5        1.0  0.9882554633251599  0.6856090516506947  0.905731423637622  1.0000
  O   O6        1.0  0.4882554633251586  0.8143909483493041  0.4057314236376222  1.0000
  O   O7        1.0  0.011744536674841878  0.31439094834930503  0.09426857636237818  1.0000
  O   O8        1.0  0.5117445366748424  0.18560905165069536  0.5942685763623794  1.0000
  O   O9        1.0  0.5493260148325929  0.8126042102546117  0.9510876652896335  1.0000
  O   O10       1.0  0.04932601483259226  0.6873957897453881  0.45108766528963384  1.0000
  O   O11       1.0  0.45067398516740814  0.1873957897453881  0.0489123347103661  1.0000
  O   O12       1.0  0.9506739851674075  0.3126042102546117  0.548912334710367  1.0000
  O   O13       1.0  0.0008317723916857478  0.2136743956000357  0.8805986293685479  1.0000
  O   O14       1.0  0.5008317723916872  0.2863256043999638  0.38059862936854766  1.0000
  O   O15       1.0  0.9991682276083129  0.7863256043999645  0.11940137063145244  1.0000
  O   O16       1.0  0.4991682276083129  0.7136743956000356  0.6194013706314517  1.0000
  O   O17       1.0  0.774223212065669  0.13004092246534116  0.7044069634570466  1.0000
  O   O18       1.0  0.27422321206566885  0.36995907753465834  0.20440696345704623  1.0000
  O   O19       1.0  0.22577678793433154  0.8699590775346585  0.29559303654295427  1.0000
  O   O20       1.0  0.7257767879343313  0.6300409224653409  0.7955930365429535  1.0000
  O   O21       1.0  0.5587032515193816  0.1649170628484554  0.9371530836181282  1.0000
  O   O22       1.0  0.05870325151938198  0.3350829371515446  0.4371530836181266  1.0000
  O   O23       1.0  0.44129674848061823  0.8350829371515448  0.06284691638187298  1.0000
  O   O24       1.0  0.9412967484806183  0.6649170628484545  0.5628469163818733  1.0000
  O   O25       1.0  0.7598644549263958  0.4269131115021149  0.9777598252946245  1.0000
  O   O26       1.0  0.2598644549263958  0.07308688849788436  0.47775982529462424  1.0000
  O   O27       1.0  0.24013554507360446  0.573086888497884  0.022240174705375395  1.0000
  O   O28       1.0  0.7401355450736046  0.9269131115021151  0.5222401747053761  1.0000
  O   O29       1.0  0.7969907707565279  0.7117865254892842  0.14100619789819488  1.0000
  O   O30       1.0  0.29699077075652675  0.788213474510715  0.641006197898195  1.0000
  O   O31       1.0  0.20300922924347337  0.2882134745107154  0.8589938021018054  1.0000
  O   O32       1.0  0.7030092292434733  0.21178652548928464  0.35899380210180526  1.0000
  O   O33       1.0  0.5004048077708864  0.5863927244544683  0.09589138534225618  1.0000
  O   O34       1.0  0.00040480777088613664  0.9136072755455311  0.595891385342257  1.0000
  O   O35       1.0  0.49959519222911397  0.4136072755455307  0.9041086146577426  1.0000
  O   O36       1.0  0.9995951922291115  0.08639272445446891  0.4041086146577439  1.0000
  O   O37       1.0  0.9963234915796122  0.44211696420036156  0.2551998859245103  1.0000
  O   O38       1.0  0.4963234915796118  0.05788303579963825  0.7551998859245102  1.0000
  O   O39       1.0  0.0036765084203882123  0.5578830357996379  0.74480011407549  1.0000
  O   O40       1.0  0.5036765084203897  0.9421169642003607  0.24480011407548938  1.0000
  O   O41       1.0  0.6386066877128832  0.4881798710455203  0.22702748830839692  1.0000
  O   O42       1.0  0.1386066877128831  0.011820128954479158  0.7270274883083977  1.0000
  O   O43       1.0  0.36139331228711746  0.5118201289544785  0.7729725116916029  1.0000
  O   O44       1.0  0.861393312287118  0.9881798710455207  0.27297251169160314  1.0000
  O   O45       1.0  0.6494818585960153  0.24380393775849857  0.046526885710772015  1.0000
  O   O46       1.0  0.149481858596015  0.2561960622415009  0.5465268857107721  1.0000
  O   O47       1.0  0.350518141403985  0.7561960622415005  0.9534731142892284  1.0000
  O   O48       1.0  0.8505181414039853  0.7438039377584991  0.4534731142892283  1.0000
