data_image0
_chemical_formula_structural       P18O72Li6Ge12
_chemical_formula_sum              "P18 O72 Li6 Ge12"
_cell_length_a       8.371761068127096
_cell_length_b       8.371761068127094
_cell_length_c       20.928484483798055
_cell_angle_alpha    90.0
_cell_angle_beta     90.0
_cell_angle_gamma    120.00000000000001

_space_group_name_H-M_alt    "P 1"
_space_group_IT_number       1

loop_
  _space_group_symop_operation_xyz
  'x, y, z'

loop_
  _atom_site_type_symbol
  _atom_site_label
  _atom_site_symmetry_multiplicity
  _atom_site_fract_x
  _atom_site_fract_y
  _atom_site_fract_z
  _atom_site_occupancy
  P   P1        1.0  0.26601016650967285  9.032557319958322e-26  0.2500000000000001  1.0000
  P   P2        1.0  0.7339898334903262  0.7339898334903261  0.2499999999999999  1.0000
  P   P3        1.0  1.0609218448452755e-16  0.26601016650967285  0.2500000000000001  1.0000
  P   P4        1.0  0.2660101665096729  0.26601016650967274  0.7499999999999994  1.0000
  P   P5        1.0  0.9999999999999999  0.7339898334903256  0.7499999999999994  1.0000
  P   P6        1.0  0.7339898334903263  6.40207354410178e-26  0.7499999999999994  1.0000
  P   P7        1.0  0.9326768331763399  0.33333333333333354  0.5833333333333334  1.0000
  P   P8        1.0  0.4006565001569934  0.06732316682366037  0.5833333333333335  1.0000
  P   P9        1.0  0.6666666666666665  0.5993434998430067  0.5833333333333333  1.0000
  P   P10       1.0  0.9326768331763389  0.5993434998430067  0.08333333333333334  1.0000
  P   P11       1.0  0.6666666666666657  0.0673231668236602  0.08333333333333333  1.0000
  P   P12       1.0  0.40065650015699356  0.33333333333333365  0.08333333333333337  1.0000
  P   P13       1.0  0.5993434998430064  0.6666666666666671  0.916666666666666  1.0000
  P   P14       1.0  0.06732316682366045  0.4006565001569935  0.9166666666666655  1.0000
  P   P15       1.0  0.33333333333333337  0.9326768331763395  0.916666666666666  1.0000
  P   P16       1.0  0.5993434998430061  0.9326768331763392  0.4166666666666666  1.0000
  P   P17       1.0  0.3333333333333332  0.4006565001569935  0.4166666666666667  1.0000
  P   P18       1.0  0.06732316682366071  0.6666666666666671  0.4166666666666666  1.0000
  O   O1        1.0  0.20108727021213427  0.048730774341459906  0.3094466260097975  1.0000
  O   O2        1.0  0.8476435041293251  0.798912729787865  0.3094466260097971  1.0000
  O   O3        1.0  0.9512692256585386  0.15235649587067449  0.3094466260097974  1.0000
  O   O4        1.0  0.20108727021213452  0.1523564958706746  0.8094466260097967  1.0000
  O   O5        1.0  0.9512692256585389  0.7989127297878649  0.8094466260097967  1.0000
  O   O6        1.0  0.8476435041293249  0.048730774341459865  0.8094466260097967  1.0000
  O   O7        1.0  0.7989127297878651  0.9512692256585401  0.6905533739902021  1.0000
  O   O8        1.0  0.15235649587067435  0.20108727021213418  0.6905533739902022  1.0000
  O   O9        1.0  0.048730774341460205  0.8476435041293263  0.6905533739902021  1.0000
  O   O10       1.0  0.7989127297878663  0.8476435041293267  0.1905533739902029  1.0000
  O   O11       1.0  0.04873077434145993  0.20108727021213432  0.19055337399020297  1.0000
  O   O12       1.0  0.15235649587067515  0.9512692256585403  0.19055337399020297  1.0000
  O   O13       1.0  0.8677539368788002  0.3820641076747931  0.6427799593431314  1.0000
  O   O14       1.0  0.5143101707959921  0.13224606312119888  0.642779959343131  1.0000
  O   O15       1.0  0.6179358923252066  0.4856898292040074  0.6427799593431314  1.0000
  O   O16       1.0  0.8677539368788006  0.4856898292040075  0.14277995934313062  1.0000
  O   O17       1.0  0.617935892325206  0.13224606312119883  0.14277995934313045  1.0000
  O   O18       1.0  0.5143101707959916  0.38206410767479315  0.14277995934313048  1.0000
  O   O19       1.0  0.4655793964545316  0.2846025589918731  0.023886707323536146  1.0000
  O   O20       1.0  0.8190231625373404  0.5344206035454676  0.023886707323536142  1.0000
  O   O21       1.0  0.7153974410081264  0.18097683746265877  0.02388670732353614  1.0000
  O   O22       1.0  0.46557939645453256  0.1809768374626588  0.523886707323536  1.0000
  O   O23       1.0  0.7153974410081264  0.5344206035454674  0.5238867073235361  1.0000
  O   O24       1.0  0.8190231625373401  0.28460255899187314  0.5238867073235361  1.0000
  O   O25       1.0  0.5344206035454669  0.7153974410081255  0.9761132926764635  1.0000
  O   O26       1.0  0.18097683746265852  0.4655793964545316  0.9761132926764634  1.0000
  O   O27       1.0  0.2846025589918728  0.8190231625373396  0.9761132926764635  1.0000
  O   O28       1.0  0.5344206035454668  0.8190231625373395  0.47611329267646396  1.0000
  O   O29       1.0  0.28460255899187314  0.4655793964545319  0.4761132926764641  1.0000
  O   O30       1.0  0.18097683746265847  0.7153974410081254  0.47611329267646396  1.0000
  O   O31       1.0  0.13224606312119946  0.6179358923252075  0.3572200406568694  1.0000
  O   O32       1.0  0.4856898292040074  0.8677539368788006  0.35722004065686935  1.0000
  O   O33       1.0  0.3820641076747929  0.5143101707959915  0.35722004065686946  1.0000
  O   O34       1.0  0.13224606312119871  0.5143101707959914  0.857220040656869  1.0000
  O   O35       1.0  0.38206410767479304  0.8677539368788006  0.857220040656869  1.0000
  O   O36       1.0  0.485689829204008  0.6179358923252074  0.857220040656869  1.0000
  O   O37       1.0  0.026752554809199733  0.8265621959931243  0.4068241739838795  1.0000
  O   O38       1.0  0.7998096411839244  0.9732474451908003  0.4068241739838795  1.0000
  O   O39       1.0  0.1734378040068753  0.20019035881607486  0.40682417398387966  1.0000
  O   O40       1.0  0.026752554809199757  0.200190358816075  0.9068241739838786  1.0000
  O   O41       1.0  0.1734378040068756  0.9732474451908  0.9068241739838787  1.0000
  O   O42       1.0  0.7998096411839245  0.8265621959931242  0.9068241739838787  1.0000
  O   O43       1.0  0.9732474451907993  0.17343780400687522  0.5931758260161198  1.0000
  O   O44       1.0  0.2001903588160748  0.026752554809199643  0.5931758260161196  1.0000
  O   O45       1.0  0.8265621959931243  0.7998096411839253  0.5931758260161196  1.0000
  O   O46       1.0  0.9732474451908005  0.7998096411839255  0.0931758260161203  1.0000
  O   O47       1.0  0.8265621959931244  0.02675255480919968  0.09317582601612032  1.0000
  O   O48       1.0  0.200190358816075  0.17343780400687528  0.09317582601612033  1.0000
  O   O49       1.0  0.693419221475866  0.1598955293264581  0.7401575073172129  1.0000
  O   O50       1.0  0.466476307850591  0.30658077852413346  0.740157507317213  1.0000
  O   O51       1.0  0.8401044706735418  0.5335236921494078  0.7401575073172131  1.0000
  O   O52       1.0  0.6934192214758658  0.533523692149408  0.24015750731721314  1.0000
  O   O53       1.0  0.8401044706735405  0.30658077852413346  0.2401575073172132  1.0000
  O   O54       1.0  0.46647630785059135  0.15989552932645787  0.24015750731721314  1.0000
  O   O55       1.0  0.6399141118574665  0.5067711373402081  0.9265091593494538  1.0000
  O   O56       1.0  0.8668570254827404  0.36008588814253306  0.9265091593494538  1.0000
  O   O57       1.0  0.49322886265979077  0.13314297451725823  0.9265091593494538  1.0000
  O   O58       1.0  0.6399141118574669  0.1331429745172582  0.42650915934945355  1.0000
  O   O59       1.0  0.49322886265979066  0.3600858881425331  0.42650915934945355  1.0000
  O   O60       1.0  0.866857025482741  0.5067711373402083  0.42650915934945366  1.0000
  O   O61       1.0  0.36008588814253284  0.493228862659791  0.07349084065054638  1.0000
  O   O62       1.0  0.13314297451725848  0.6399141118574668  0.0734908406505464  1.0000
  O   O63       1.0  0.5067711373402083  0.866857025482741  0.07349084065054637  1.0000
  O   O64       1.0  0.3600858881425326  0.8668570254827409  0.5734908406505469  1.0000
  O   O65       1.0  0.5067711373402082  0.6399141118574666  0.5734908406505469  1.0000
  O   O66       1.0  0.1331429745172581  0.49322886265979066  0.5734908406505467  1.0000
  O   O67       1.0  0.3065807785241336  0.8401044706735418  0.259842492682787  1.0000
  O   O68       1.0  0.5335236921494079  0.693419221475866  0.259842492682787  1.0000
  O   O69       1.0  0.15989552932645762  0.4664763078505912  0.2598424926827871  1.0000
  O   O70       1.0  0.30658077852413335  0.4664763078505912  0.7598424926827861  1.0000
  O   O71       1.0  0.15989552932645792  0.6934192214758659  0.7598424926827861  1.0000
  O   O72       1.0  0.5335236921494081  0.8401044706735417  0.759842492682786  1.0000
  Li  Li1       1.0  7.219870254366866e-17  0.0  0.49999999999999994  1.0000
  Li  Li2       1.0  5.369498546658233e-17  5.551115123125789e-17  4.339944978305253e-17  1.0000
  Li  Li3       1.0  0.666666666666667  0.3333333333333334  0.8333333333333331  1.0000
  Li  Li4       1.0  0.666666666666667  0.33333333333333365  0.333333333333333  1.0000
  Li  Li5       1.0  0.3333333333333336  0.6666666666666672  0.16666666666666663  1.0000
  Li  Li6       1.0  0.3333333333333336  0.6666666666666671  0.666666666666666  1.0000
  Ge  Ge1       1.0  1.1075170210867457e-16  0.0  0.3681934907697644  1.0000
  Ge  Ge2       1.0  1.9963795596475376e-16  1.3600754138711186e-31  0.8681934907697646  1.0000
  Ge  Ge3       1.0  1.4752615130709892e-16  1.2400325725305717e-16  0.6318065092302351  1.0000
  Ge  Ge4       1.0  6.883697136815898e-17  0.0  0.13180650923023554  1.0000
  Ge  Ge5       1.0  0.6666666666666671  0.3333333333333336  0.7015268241030979  1.0000
  Ge  Ge6       1.0  0.6666666666666671  0.3333333333333336  0.2015268241030977  1.0000
  Ge  Ge7       1.0  0.666666666666667  0.33333333333333354  0.9651398425635684  1.0000
  Ge  Ge8       1.0  0.6666666666666671  0.3333333333333335  0.4651398425635683  1.0000
  Ge  Ge9       1.0  0.3333333333333336  0.6666666666666672  0.034860157436431186  1.0000
  Ge  Ge10      1.0  0.33333333333333365  0.6666666666666671  0.5348601574364312  1.0000
  Ge  Ge11      1.0  0.33333333333333365  0.6666666666666673  0.298473175896902  1.0000
  Ge  Ge12      1.0  0.3333333333333336  0.666666666666667  0.7984731758969026  1.0000
