data_image0
_chemical_formula_structural       Li4Al4O8
_chemical_formula_sum              "Li4 Al4 O8"
_cell_length_a       6.194546530489508
_cell_length_b       6.194546530489501
_cell_length_c       9.524669476834385
_cell_angle_alpha    90.0
_cell_angle_beta     90.0
_cell_angle_gamma    90.0

_space_group_name_H-M_alt    "P 1"
_space_group_IT_number       1

loop_
  _space_group_symop_operation_xyz
  'x, y, z'

loop_
  _atom_site_type_symbol
  _atom_site_label
  _atom_site_symmetry_multiplicity
  _atom_site_fract_x
  _atom_site_fract_y
  _atom_site_fract_z
  _atom_site_occupancy
  Li  Li1       1.0  0.3417350980452018  0.6582649019547984  0.7500000000000012  1.0000
  Li  Li2       1.0  0.6582649019547981  0.34173509804520175  0.25  1.0000
  Li  Li3       1.0  0.1582649019547982  0.15826490195479814  0.5  1.0000
  Li  Li4       1.0  0.841735098045202  0.8417350980452014  4.8736109955835326e-30  1.0000
  Al  Al1       1.0  0.008339292954579802  0.9916607070454199  0.7500000000000012  1.0000
  Al  Al2       1.0  0.9916607070454205  0.008339292954579358  0.25  1.0000
  Al  Al3       1.0  0.4916607070454196  0.4916607070454196  0.5  1.0000
  Al  Al4       1.0  0.5083392929545798  0.5083392929545795  2.99547195206511e-29  1.0000
  O   O1        1.0  0.6301775209182737  0.7350239994365809  0.9105873338974974  1.0000
  O   O2        1.0  0.36982247908172516  0.26497600056341875  0.410587333897497  1.0000
  O   O3        1.0  0.23502399943658087  0.8698224790817249  0.6605873338974974  1.0000
  O   O4        1.0  0.7649760005634191  0.13017752091827467  0.16058733389749685  1.0000
  O   O5        1.0  0.26497600056341897  0.3698224790817249  0.5894126661025043  1.0000
  O   O6        1.0  0.735023999436581  0.6301775209182738  0.08941266610250324  1.0000
  O   O7        1.0  0.8698224790817247  0.23502399943658075  0.33941266610250337  1.0000
  O   O8        1.0  0.13017752091827464  0.7649760005634187  0.8394126661025036  1.0000
