data_image0
_chemical_formula_structural       Li6Ti12P18O72
_chemical_formula_sum              "Li6 Ti12 P18 O72"
_cell_length_a       8.57817076507123
_cell_length_b       8.578170765071228
_cell_length_c       23.469154808822015
_cell_angle_alpha    89.99999999999999
_cell_angle_beta     90.0
_cell_angle_gamma    120.00000000000001

_space_group_name_H-M_alt    "P 1"
_space_group_IT_number       1

loop_
  _space_group_symop_operation_xyz
  'x, y, z'

loop_
  _atom_site_type_symbol
  _atom_site_label
  _atom_site_symmetry_multiplicity
  _atom_site_fract_x
  _atom_site_fract_y
  _atom_site_fract_z
  _atom_site_occupancy
  Li  Li1       1.0  0.0  0.9999999999999999  0.5  1.0000
  Li  Li2       1.0  0.0  0.0  1.276424076215747e-16  1.0000
  Li  Li3       1.0  0.6666666666666667  0.3333333333333332  0.8333333333333337  1.0000
  Li  Li4       1.0  0.6666666666666671  0.33333333333333354  0.3333333333333333  1.0000
  Li  Li5       1.0  0.3333333333333335  0.6666666666666673  0.16666666666666669  1.0000
  Li  Li6       1.0  0.3333333333333334  0.6666666666666671  0.6666666666666665  1.0000
  Ti  Ti1       1.0  1.6918912450606964e-17  0.0  0.37428598465071644  1.0000
  Ti  Ti2       1.0  1.431950397627014e-16  0.9999999999999999  0.8742859846507168  1.0000
  Ti  Ti3       1.0  3.181622971016796e-17  4.6223328423868404e-17  0.6257140153492834  1.0000
  Ti  Ti4       1.0  0.0  0.0  0.12571401534928414  1.0000
  Ti  Ti5       1.0  0.6666666666666669  0.33333333333333326  0.7076193179840486  1.0000
  Ti  Ti6       1.0  0.6666666666666672  0.3333333333333336  0.20761931798404942  1.0000
  Ti  Ti7       1.0  0.6666666666666667  0.33333333333333326  0.9590473486826175  1.0000
  Ti  Ti8       1.0  0.666666666666667  0.3333333333333335  0.4590473486826173  1.0000
  Ti  Ti9       1.0  0.33333333333333354  0.6666666666666674  0.040952651317382884  1.0000
  Ti  Ti10      1.0  0.33333333333333354  0.6666666666666671  0.5409526513173826  1.0000
  Ti  Ti11      1.0  0.33333333333333354  0.6666666666666674  0.2923806820159511  1.0000
  Ti  Ti12      1.0  0.3333333333333334  0.666666666666667  0.7923806820159502  1.0000
  P   P1        1.0  0.35544367919282327  0.3554436791928228  0.7500000000000002  1.0000
  P   P2        1.0  0.9999999999999998  0.6445563208071763  0.7500000000000002  1.0000
  P   P3        1.0  0.6445563208071767  0.0  0.7500000000000002  1.0000
  P   P4        1.0  0.35544367919282416  0.0  0.25000000000000006  1.0000
  P   P5        1.0  0.6445563208071766  0.6445563208071766  0.25000000000000006  1.0000
  P   P6        1.0  0.9999999999999996  0.35544367919282327  0.25000000000000006  1.0000
  P   P7        1.0  0.02211034585949039  0.6887770125261568  0.08333333333333348  1.0000
  P   P8        1.0  0.6666666666666671  0.9778896541405103  0.08333333333333347  1.0000
  P   P9        1.0  0.3112229874738437  0.3333333333333337  0.08333333333333348  1.0000
  P   P10       1.0  0.02211034585949031  0.3333333333333333  0.5833333333333335  1.0000
  P   P11       1.0  0.31122298747384347  0.97788965414051  0.5833333333333334  1.0000
  P   P12       1.0  0.6666666666666672  0.6887770125261569  0.5833333333333335  1.0000
  P   P13       1.0  0.6887770125261565  0.022110345859490073  0.41666666666666696  1.0000
  P   P14       1.0  0.33333333333333315  0.31122298747384347  0.41666666666666685  1.0000
  P   P15       1.0  0.9778896541405102  0.6666666666666672  0.41666666666666685  1.0000
  P   P16       1.0  0.6887770125261568  0.666666666666667  0.9166666666666672  1.0000
  P   P17       1.0  0.9778896541405095  0.31122298747384325  0.9166666666666672  1.0000
  P   P18       1.0  0.33333333333333315  0.022110345859489913  0.9166666666666672  1.0000
  O   O1        1.0  0.7149941809569835  0.853574529024336  0.9003433390927046  1.0000
  O   O2        1.0  0.13858034806735198  0.28500581904301664  0.9003433390927046  1.0000
  O   O3        1.0  0.1464254709756648  0.8614196519326482  0.9003433390927046  1.0000
  O   O4        1.0  0.714994180956984  0.8614196519326484  0.4003433390927051  1.0000
  O   O5        1.0  0.1464254709756651  0.28500581904301664  0.4003433390927051  1.0000
  O   O6        1.0  0.13858034806735198  0.8535745290243362  0.4003433390927051  1.0000
  O   O7        1.0  0.2850058190430165  0.14642547097566505  0.09965666090729533  1.0000
  O   O8        1.0  0.8614196519326482  0.7149941809569842  0.09965666090729534  1.0000
  O   O9        1.0  0.8535745290243354  0.13858034806735287  0.09965666090729534  1.0000
  O   O10       1.0  0.2850058190430168  0.13858034806735264  0.5996566609072954  1.0000
  O   O11       1.0  0.8535745290243352  0.7149941809569837  0.5996566609072954  1.0000
  O   O12       1.0  0.8614196519326485  0.14642547097566497  0.5996566609072955  1.0000
  O   O13       1.0  0.3816608476236498  0.1869078623576682  0.23367667242603823  1.0000
  O   O14       1.0  0.8052470147340182  0.6183391523763496  0.23367667242603815  1.0000
  O   O15       1.0  0.8130921376423312  0.1947529852659822  0.23367667242603818  1.0000
  O   O16       1.0  0.3816608476236502  0.19475298526598186  0.7336766724260382  1.0000
  O   O17       1.0  0.8130921376423318  0.6183391523763492  0.7336766724260382  1.0000
  O   O18       1.0  0.805247014734018  0.18690786235766815  0.7336766724260382  1.0000
  O   O19       1.0  0.9516724857096832  0.4797588043089987  0.43298999424062856  1.0000
  O   O20       1.0  0.5280863185993154  0.04832751429031673  0.4329899942406286  1.0000
  O   O21       1.0  0.5202411956910018  0.4719136814006852  0.4329899942406286  1.0000
  O   O22       1.0  0.9516724857096828  0.4719136814006849  0.9329899942406293  1.0000
  O   O23       1.0  0.5202411956910019  0.04832751429031673  0.9329899942406293  1.0000
  O   O24       1.0  0.5280863185993148  0.4797588043089984  0.9329899942406294  1.0000
  O   O25       1.0  0.048327514290316786  0.5202411956910018  0.5670100057593715  1.0000
  O   O26       1.0  0.4719136814006849  0.9516724857096839  0.5670100057593717  1.0000
  O   O27       1.0  0.4797588043089982  0.5280863185993153  0.5670100057593717  1.0000
  O   O28       1.0  0.04832751429031692  0.5280863185993157  0.06701000575937154  1.0000
  O   O29       1.0  0.47975880430899864  0.951672485709684  0.06701000575937156  1.0000
  O   O30       1.0  0.4719136814006848  0.5202411956910019  0.06701000575937156  1.0000
  O   O31       1.0  0.6183391523763495  0.8130921376423313  0.7663233275739629  1.0000
  O   O32       1.0  0.1947529852659816  0.3816608476236497  0.7663233275739629  1.0000
  O   O33       1.0  0.1869078623576683  0.8052470147340186  0.7663233275739629  1.0000
  O   O34       1.0  0.6183391523763501  0.8052470147340187  0.26632332757396193  1.0000
  O   O35       1.0  0.18690786235766807  0.38166084762365005  0.26632332757396193  1.0000
  O   O36       1.0  0.1947529852659816  0.8130921376423317  0.26632332757396193  1.0000
  O   O37       1.0  0.3177580994233705  0.22049460202228058  0.47837531957822216  1.0000
  O   O38       1.0  0.9027365025989101  0.68224190057663  0.47837531957822205  1.0000
  O   O39       1.0  0.7795053979777198  0.09726349740108997  0.47837531957822216  1.0000
  O   O40       1.0  0.3177580994233704  0.09726349740109007  0.9783753195782219  1.0000
  O   O41       1.0  0.7795053979777196  0.6822419005766301  0.9783753195782219  1.0000
  O   O42       1.0  0.90273650259891  0.22049460202228074  0.9783753195782218  1.0000
  O   O43       1.0  0.6822419005766295  0.7795053979777202  0.5216246804217785  1.0000
  O   O44       1.0  0.09726349740108979  0.3177580994233703  0.5216246804217783  1.0000
  O   O45       1.0  0.22049460202228052  0.9027365025989107  0.5216246804217785  1.0000
  O   O46       1.0  0.6822419005766295  0.9027365025989105  0.021624680421779674  1.0000
  O   O47       1.0  0.22049460202228044  0.31775809942337035  0.021624680421779452  1.0000
  O   O48       1.0  0.09726349740109015  0.7795053979777198  0.021624680421779452  1.0000
  O   O49       1.0  0.9844247660900365  0.5538279353556133  0.8117086529115544  1.0000
  O   O50       1.0  0.5694031692655764  0.015575233909962693  0.8117086529115546  1.0000
  O   O51       1.0  0.446172064644386  0.43059683073442334  0.8117086529115546  1.0000
  O   O52       1.0  0.9844247660900374  0.4305968307344236  0.31170865291155575  1.0000
  O   O53       1.0  0.4461720646443861  0.015575233909962623  0.3117086529115558  1.0000
  O   O54       1.0  0.5694031692655761  0.5538279353556135  0.31170865291155575  1.0000
  O   O55       1.0  0.3489085672432958  0.11283873131105272  0.8549580137551124  1.0000
  O   O56       1.0  0.7639301640677565  0.651091432756704  0.8549580137551124  1.0000
  O   O57       1.0  0.8871612686889471  0.23606983593224307  0.8549580137551124  1.0000
  O   O58       1.0  0.34890856724329605  0.23606983593224332  0.3549580137551118  1.0000
  O   O59       1.0  0.8871612686889474  0.6510914327567043  0.3549580137551118  1.0000
  O   O60       1.0  0.7639301640677563  0.11283873131105265  0.3549580137551118  1.0000
  O   O61       1.0  0.6510914327567041  0.8871612686889481  0.1450419862448885  1.0000
  O   O62       1.0  0.2360698359322431  0.34890856724329594  0.1450419862448885  1.0000
  O   O63       1.0  0.11283873131105278  0.7639301640677568  0.14504198624488848  1.0000
  O   O64       1.0  0.6510914327567036  0.7639301640677566  0.645041986244888  1.0000
  O   O65       1.0  0.11283873131105249  0.34890856724329566  0.6450419862448881  1.0000
  O   O66       1.0  0.23606983593224326  0.8871612686889478  0.645041986244888  1.0000
  O   O67       1.0  0.01557523390996295  0.446172064644387  0.18829134708844525  1.0000
  O   O68       1.0  0.43059683073442345  0.9844247660900377  0.18829134708844525  1.0000
  O   O69       1.0  0.553827935355614  0.5694031692655777  0.18829134708844525  1.0000
  O   O70       1.0  0.015575233909963104  0.5694031692655775  0.6882913470884451  1.0000
  O   O71       1.0  0.5538279353556138  0.9844247660900376  0.6882913470884451  1.0000
  O   O72       1.0  0.4305968307344236  0.4461720646443866  0.6882913470884451  1.0000
