data_image0
_chemical_formula_structural       Fe12V24O84Li20
_chemical_formula_sum              "Fe12 V24 O84 Li20"
_cell_length_a       14.423637782494563
_cell_length_b       8.486969074066899
_cell_length_c       14.436497406536756
_cell_angle_alpha    90.0
_cell_angle_beta     95.88929642698363
_cell_angle_gamma    90.0

_space_group_name_H-M_alt    "P 1"
_space_group_IT_number       1

loop_
  _space_group_symop_operation_xyz
  'x, y, z'

loop_
  _atom_site_type_symbol
  _atom_site_label
  _atom_site_symmetry_multiplicity
  _atom_site_fract_x
  _atom_site_fract_y
  _atom_site_fract_z
  _atom_site_occupancy
  Fe  Fe1       1.0  0.5144319710347879  0.8269206753460265  0.37931552471915553  1.0000
  Fe  Fe2       1.0  0.5144319710347879  0.17307932465397294  0.8793155247191551  1.0000
  Fe  Fe3       1.0  0.014431971034787772  0.3269206753460268  0.37931552471915586  1.0000
  Fe  Fe4       1.0  0.014431971034787106  0.673079324653972  0.8793155247191557  1.0000
  Fe  Fe5       1.0  0.8404017693480326  0.8527692964038631  0.5211011434008744  1.0000
  Fe  Fe6       1.0  0.8404017693480333  0.14723070359613616  0.021101143400874163  1.0000
  Fe  Fe7       1.0  0.3404017693480322  0.3527692964038635  0.5211011434008747  1.0000
  Fe  Fe8       1.0  0.3404017693480317  0.6472307035961364  0.021101143400874215  1.0000
  Fe  Fe9       1.0  0.7111307014173632  0.2581394902570065  0.6746273570422252  1.0000
  Fe  Fe10      1.0  0.7111307014173633  0.7418605097429931  0.1746273570422262  1.0000
  Fe  Fe11      1.0  0.21113070141736415  0.7581394902570056  0.674627357042225  1.0000
  Fe  Fe12      1.0  0.21113070141736456  0.24186050974299286  0.17462735704222648  1.0000
  V   V1        1.0  0.43602448763537793  0.061037140045167866  0.1768511437128458  1.0000
  V   V2        1.0  0.4360244876353779  0.9389628599548304  0.6768511437128455  1.0000
  V   V3        1.0  0.9360244876353777  0.5610371400451676  0.17685114371284566  1.0000
  V   V4        1.0  0.9360244876353785  0.4389628599548327  0.676851143712846  1.0000
  V   V5        1.0  0.692267676901474  0.9354403333964888  0.34462490952120917  1.0000
  V   V6        1.0  0.6922676769014747  0.0645596666035106  0.844624909521209  1.0000
  V   V7        1.0  0.19226767690147437  0.43544033339648974  0.3446249095212094  1.0000
  V   V8        1.0  0.19226767690147445  0.56455966660351  0.8446249095212092  1.0000
  V   V9        1.0  0.5176671708444353  0.2584557817850244  0.578489072806937  1.0000
  V   V10       1.0  0.5176671708444358  0.7415442182149745  0.07848907280693658  1.0000
  V   V11       1.0  0.01766717084443544  0.7584557817850244  0.5784890728069366  1.0000
  V   V12       1.0  0.017667170844435465  0.24154421821497551  0.07848907280693654  1.0000
  V   V13       1.0  0.6292085744795951  0.9083425987876158  0.5386822356257351  1.0000
  V   V14       1.0  0.6292085744795957  0.09165740121238387  0.03868223562573539  1.0000
  V   V15       1.0  0.12920857447959547  0.4083425987876158  0.5386822356257355  1.0000
  V   V16       1.0  0.12920857447959547  0.5916574012123833  0.038682235625735466  1.0000
  V   V17       1.0  0.32901155772002794  0.9917919833314935  0.3925304775508519  1.0000
  V   V18       1.0  0.3290115577200277  0.008208016668506443  0.8925304775508528  1.0000
  V   V19       1.0  0.8290115577200269  0.4917919833314941  0.3925304775508523  1.0000
  V   V20       1.0  0.8290115577200287  0.508208016668506  0.8925304775508525  1.0000
  V   V21       1.0  0.40137493053973006  0.4643301105327502  0.23623757766865103  1.0000
  V   V22       1.0  0.4013749305397304  0.5356698894672497  0.7362375776686501  1.0000
  V   V23       1.0  0.9013749305397311  0.964330110532749  0.23623757766865117  1.0000
  V   V24       1.0  0.9013749305397293  0.03566988946724978  0.736237577668651  1.0000
  O   O1        1.0  0.4527875650347835  0.3600524579400694  0.45998325653997985  1.0000
  O   O2        1.0  0.4527875650347828  0.63994754205993  0.9599832565399792  1.0000
  O   O3        1.0  0.9527875650347825  0.860052457940069  0.4599832565399796  1.0000
  O   O4        1.0  0.9527875650347819  0.13994754205993015  0.9599832565399785  1.0000
  O   O5        1.0  0.3182986643781962  0.15664960176048287  0.12745301059343137  1.0000
  O   O6        1.0  0.31829866437819637  0.8433503982395172  0.627453010593432  1.0000
  O   O7        1.0  0.818298664378196  0.6566496017604816  0.1274530105934313  1.0000
  O   O8        1.0  0.8182986643781968  0.3433503982395168  0.6274530105934315  1.0000
  O   O9        1.0  0.2516910231767318  0.8248346711529121  0.3476900757715749  1.0000
  O   O10       1.0  0.25169102317673164  0.17516532884708785  0.8476900757715742  1.0000
  O   O11       1.0  0.7516910231767311  0.32483467115291215  0.34769007577157507  1.0000
  O   O12       1.0  0.7516910231767315  0.675165328847087  0.8476900757715751  1.0000
  O   O13       1.0  0.3819277917072184  0.4802475829582146  0.11780436232725518  1.0000
  O   O14       1.0  0.38192779170721797  0.5197524170417844  0.6178043623272543  1.0000
  O   O15       1.0  0.8819277917072168  0.9802475829582148  0.11780436232725505  1.0000
  O   O16       1.0  0.8819277917072174  0.01975241704178525  0.6178043623272551  1.0000
  O   O17       1.0  0.424236180844676  0.6411552587816295  0.2900615254336259  1.0000
  O   O18       1.0  0.4242361808446765  0.35884474121836957  0.7900615254336254  1.0000
  O   O19       1.0  0.9242361808446753  0.14115525878162993  0.290061525433626  1.0000
  O   O20       1.0  0.9242361808446754  0.8588447412183696  0.7900615254336254  1.0000
  O   O21       1.0  0.2900652295460438  0.2026876609244328  0.4249340807599437  1.0000
  O   O22       1.0  0.29006522954604386  0.7973123390755674  0.9249340807599463  1.0000
  O   O23       1.0  0.7900652295460444  0.7026876609244325  0.4249340807599439  1.0000
  O   O24       1.0  0.7900652295460443  0.297312339075567  0.9249340807599452  1.0000
  O   O25       1.0  0.5394513817309322  0.8764185051705313  0.625265290513458  1.0000
  O   O26       1.0  0.5394513817309322  0.12358149482946844  0.12526529051345794  1.0000
  O   O27       1.0  0.03945138173093187  0.3764185051705312  0.6252652905134578  1.0000
  O   O28       1.0  0.03945138173093203  0.6235814948294677  0.12526529051345808  1.0000
  O   O29       1.0  0.6198031124694929  0.7800129936208858  0.29501703735058665  1.0000
  O   O30       1.0  0.619803112469493  0.2199870063791139  0.7950170373505869  1.0000
  O   O31       1.0  0.11980311246949281  0.28001299362088594  0.29501703735058665  1.0000
  O   O32       1.0  0.11980311246949284  0.7199870063791134  0.7950170373505866  1.0000
  O   O33       1.0  0.5860397591486224  0.009555474730947644  0.4311037890746219  1.0000
  O   O34       1.0  0.5860397591486225  0.9904445252690521  0.9311037890746214  1.0000
  O   O35       1.0  0.0860397591486224  0.5095554747309481  0.4311037890746219  1.0000
  O   O36       1.0  0.08603975914862233  0.4904445252690509  0.9311037890746223  1.0000
  O   O37       1.0  0.6742697413394859  0.11111692978774072  0.3005624587545481  1.0000
  O   O38       1.0  0.6742697413394861  0.8888830702122591  0.8005624587545476  1.0000
  O   O39       1.0  0.17426974133948608  0.6111169297877399  0.30056245875454807  1.0000
  O   O40       1.0  0.17426974133948625  0.38888307021225915  0.8005624587545476  1.0000
  O   O41       1.0  0.6154028403348926  0.1326132651800926  0.587445573165142  1.0000
  O   O42       1.0  0.6154028403348931  0.8673867348199071  0.08744557316514166  1.0000
  O   O43       1.0  0.11540284033489398  0.6326132651800923  0.5874455731651426  1.0000
  O   O44       1.0  0.11540284033489404  0.36738673481990686  0.08744557316514166  1.0000
  O   O45       1.0  0.71381495309579  0.3834968938209472  0.4256256401963627  1.0000
  O   O46       1.0  0.7138149530957896  0.6165031061790526  0.9256256401963628  1.0000
  O   O47       1.0  0.21381495309579068  0.8834968938209465  0.42562564019636295  1.0000
  O   O48       1.0  0.21381495309579032  0.11650310617905295  0.9256256401963628  1.0000
  O   O49       1.0  0.29944241903966184  0.39185112601109634  0.27455563718766257  1.0000
  O   O50       1.0  0.2994424190396616  0.6081488739889026  0.7745556371876623  1.0000
  O   O51       1.0  0.7994424190396602  0.8918511260110961  0.2745556371876624  1.0000
  O   O52       1.0  0.7994424190396603  0.10814887398890323  0.7745556371876628  1.0000
  O   O53       1.0  0.498329549524892  0.3522213063752633  0.2565897311153482  1.0000
  O   O54       1.0  0.49832954952489217  0.6477786936247363  0.7565897311153483  1.0000
  O   O55       1.0  0.9983295495248925  0.8522213063752634  0.2565897311153481  1.0000
  O   O56       1.0  0.9983295495248925  0.14777869362473625  0.7565897311153484  1.0000
  O   O57       1.0  0.42663580801129997  0.015977378483122476  0.289934139443945  1.0000
  O   O58       1.0  0.4266358080112999  0.9840226215168785  0.7899341394439447  1.0000
  O   O59       1.0  0.9266358080113  0.5159773784831224  0.28993413944394525  1.0000
  O   O60       1.0  0.9266358080113  0.4840226215168764  0.7899341394439446  1.0000
  O   O61       1.0  0.5957612301579821  0.7329112378869891  0.4825166598715052  1.0000
  O   O62       1.0  0.5957612301579817  0.2670887621130104  0.9825166598715049  1.0000
  O   O63       1.0  0.09576123015798182  0.23291123788698972  0.4825166598715051  1.0000
  O   O64       1.0  0.09576123015798182  0.7670887621130106  0.9825166598715052  1.0000
  O   O65       1.0  0.42900573526242897  0.8340495758597097  0.12224761172047718  1.0000
  O   O66       1.0  0.42900573526242963  0.16595042414029057  0.6222476117204773  1.0000
  O   O67       1.0  0.9290057352624279  0.33404957585970924  0.12224761172047725  1.0000
  O   O68       1.0  0.9290057352624294  0.6659504241402895  0.6222476117204774  1.0000
  O   O69       1.0  0.7480391773913476  0.9973259209856161  0.4731528863117501  1.0000
  O   O70       1.0  0.7480391773913481  0.0026740790143818037  0.9731528863117507  1.0000
  O   O71       1.0  0.24803917739134831  0.497325920985618  0.4731528863117505  1.0000
  O   O72       1.0  0.24803917739134815  0.5026740790143811  0.9731528863117503  1.0000
  O   O73       1.0  0.6058552148809112  0.4114461685579687  0.6462316643822594  1.0000
  O   O74       1.0  0.6058552148809118  0.5885538314420296  0.14623166438225935  1.0000
  O   O75       1.0  0.10585521488091104  0.9114461685579696  0.6462316643822593  1.0000
  O   O76       1.0  0.10585521488091121  0.08855383144203123  0.14623166438225932  1.0000
  O   O77       1.0  0.4109498534268393  0.8496094310325  0.46204689215000766  1.0000
  O   O78       1.0  0.41094985342683954  0.15039056896749914  0.9620468921500074  1.0000
  O   O79       1.0  0.9109498534268398  0.34960943103250086  0.4620468921500075  1.0000
  O   O80       1.0  0.9109498534268387  0.6503905689674986  0.9620468921500072  1.0000
  O   O81       1.0  0.7447823545317935  0.8179689796242986  0.6097474798700054  1.0000
  O   O82       1.0  0.7447823545317949  0.182031020375701  0.10974747987000569  1.0000
  O   O83       1.0  0.24478235453179387  0.3179689796242988  0.6097474798700055  1.0000
  O   O84       1.0  0.24478235453179417  0.6820310203757003  0.10974747987000572  1.0000
  Li  Li1       1.0  0.5915912462546362  0.6730423374655186  0.6656277702276981  1.0000
  Li  Li2       1.0  0.5915912462546361  0.32695766253448133  0.16562777022769723  1.0000
  Li  Li3       1.0  0.09159124625463586  0.1730423374655188  0.6656277702276977  1.0000
  Li  Li4       1.0  0.09159124625463579  0.8269576625344799  0.16562777022769726  1.0000
  Li  Li5       1.0  0.34105787344892846  0.29067618690005415  0.024132371198969556  1.0000
  Li  Li6       1.0  0.34105787344892846  0.7093238130999463  0.5241323711989696  1.0000
  Li  Li7       1.0  0.8410578734489292  0.7906761869000535  0.02413237119896957  1.0000
  Li  Li8       1.0  0.8410578734489288  0.20932381309994566  0.5241323711989694  1.0000
  Li  Li9       1.0  0.5268672003583766  0.20382535249087097  0.37267566104177297  1.0000
  Li  Li10      1.0  0.5268672003583764  0.7961746475091288  0.8726756610417731  1.0000
  Li  Li11      1.0  0.026867200358376878  0.70382535249087  0.3726756610417729  1.0000
  Li  Li12      1.0  0.026867200358376954  0.29617464750912925  0.8726756610417741  1.0000
  Li  Li13      1.0  0.3102066761297455  0.7468231483676087  0.22148841715575857  1.0000
  Li  Li14      1.0  0.31020667612974534  0.2531768516323913  0.7214884171557578  1.0000
  Li  Li15      1.0  0.810206676129746  0.24682314836760874  0.2214884171557586  1.0000
  Li  Li16      1.0  0.8102066761297453  0.75317685163239  0.7214884171557585  1.0000
  Li  Li17      1.0  0.05134603611882675  0.1050512774868361  0.2569873390974563  1.0000
  Li  Li18      1.0  0.05134603611882658  0.8949487225131632  0.7569873390974561  1.0000
  Li  Li19      1.0  0.5513460361188265  0.6050512774868358  0.25698733909745636  1.0000
  Li  Li20      1.0  0.5513460361188267  0.3949487225131638  0.7569873390974561  1.0000
