data_image0
_chemical_formula_structural       Fe12V24O84Li12
_chemical_formula_sum              "Fe12 V24 O84 Li12"
_cell_length_a       13.354708559589644
_cell_length_b       8.292265557371685
_cell_length_c       14.869347349153935
_cell_angle_alpha    90.0
_cell_angle_beta     87.1119243570606
_cell_angle_gamma    90.0

_space_group_name_H-M_alt    "P 1"
_space_group_IT_number       1

loop_
  _space_group_symop_operation_xyz
  'x, y, z'

loop_
  _atom_site_type_symbol
  _atom_site_label
  _atom_site_symmetry_multiplicity
  _atom_site_fract_x
  _atom_site_fract_y
  _atom_site_fract_z
  _atom_site_occupancy
  Fe  Fe1       1.0  0.501887726331417  0.7903465402977223  0.3672461952182913  1.0000
  Fe  Fe2       1.0  0.5018877263314167  0.20965345970227714  0.8672461952182895  1.0000
  Fe  Fe3       1.0  0.0018877263314169834  0.29034654029772294  0.36724619521829127  1.0000
  Fe  Fe4       1.0  0.0018877263314163173  0.709653459702277  0.86724619521829  1.0000
  Fe  Fe5       1.0  0.8369221822375168  0.8233567214158174  0.5253044206660072  1.0000
  Fe  Fe6       1.0  0.836922182237516  0.17664327858418188  0.02530442066600805  1.0000
  Fe  Fe7       1.0  0.3369221822375172  0.323356721415818  0.5253044206660076  1.0000
  Fe  Fe8       1.0  0.336922182237517  0.6766432785841813  0.025304420666007924  1.0000
  Fe  Fe9       1.0  0.7077789169963947  0.2956147002405839  0.6941324248501402  1.0000
  Fe  Fe10      1.0  0.7077789169963945  0.7043852997594161  0.1941324248501408  1.0000
  Fe  Fe11      1.0  0.20777891699639464  0.7956147002405835  0.6941324248501403  1.0000
  Fe  Fe12      1.0  0.2077789169963943  0.20438529975941624  0.19413242485014068  1.0000
  V   V1        1.0  0.3773303170919757  0.9990684657234273  0.18623867271223452  1.0000
  V   V2        1.0  0.3773303170919757  0.0009315342765725543  0.6862386727122348  1.0000
  V   V3        1.0  0.877330317091976  0.4990684657234267  0.1862386727122343  1.0000
  V   V4        1.0  0.8773303170919758  0.5009315342765729  0.6862386727122343  1.0000
  V   V5        1.0  0.7013507877452982  0.03369626193196407  0.36151361116707087  1.0000
  V   V6        1.0  0.7013507877452995  0.9663037380680357  0.8615136111670703  1.0000
  V   V7        1.0  0.2013507877452994  0.533696261931964  0.3615136111670708  1.0000
  V   V8        1.0  0.20135078774529935  0.46630373806803593  0.8615136111670703  1.0000
  V   V9        1.0  0.5746182673647839  0.501400603564622  0.5363782378907161  1.0000
  V   V10       1.0  0.5746182673647836  0.4985993964353778  0.03637823789071619  1.0000
  V   V11       1.0  0.07461826736478386  0.001400603564621683  0.5363782378907163  1.0000
  V   V12       1.0  0.07461826736478387  0.9985993964353778  0.03637823789071614  1.0000
  V   V13       1.0  0.6138375465573181  0.012576355851672494  0.5598034684678264  1.0000
  V   V14       1.0  0.6138375465573177  0.9874236441483277  0.0598034684678277  1.0000
  V   V15       1.0  0.11383754655731809  0.5125763558516727  0.5598034684678269  1.0000
  V   V16       1.0  0.11383754655731836  0.48742364414832734  0.059803468467827636  1.0000
  V   V17       1.0  0.34484539344006476  0.9784719598743092  0.39165307433903085  1.0000
  V   V18       1.0  0.344845393440065  0.02152804012568967  0.8916530743390301  1.0000
  V   V19       1.0  0.8448453934400645  0.47847195987431046  0.39165307433903085  1.0000
  V   V20       1.0  0.8448453934400636  0.5215280401256894  0.8916530743390302  1.0000
  V   V21       1.0  0.4313605752804495  0.5022328511332946  0.23013767851954367  1.0000
  V   V22       1.0  0.43136057528044924  0.49776714886670487  0.7301376785195437  1.0000
  V   V23       1.0  0.9313605752804481  0.0022328511332951884  0.23013767851954384  1.0000
  V   V24       1.0  0.9313605752804487  0.9977671488667048  0.7301376785195436  1.0000
  O   O1        1.0  0.49142122571116587  0.3920005782969159  0.4712504639125713  1.0000
  O   O2        1.0  0.4914212257111665  0.6079994217030839  0.9712504639125714  1.0000
  O   O3        1.0  0.9914212257111668  0.8920005782969149  0.4712504639125713  1.0000
  O   O4        1.0  0.9914212257111655  0.10799942170308437  0.9712504639125712  1.0000
  O   O5        1.0  0.33259063112218973  0.18921439270003007  0.15640758244537967  1.0000
  O   O6        1.0  0.3325906311221895  0.8107856072999698  0.6564075824453792  1.0000
  O   O7        1.0  0.8325906311221899  0.6892143927000295  0.15640758244537983  1.0000
  O   O8        1.0  0.8325906311221893  0.3107856072999705  0.6564075824453794  1.0000
  O   O9        1.0  0.25821502534422747  0.04987808564512397  0.30374226929036374  1.0000
  O   O10       1.0  0.2582150253442274  0.9501219143548753  0.8037422692903636  1.0000
  O   O11       1.0  0.758215025344227  0.5498780856451246  0.3037422692903634  1.0000
  O   O12       1.0  0.7582150253442282  0.4501219143548756  0.8037422692903635  1.0000
  O   O13       1.0  0.41229753147195386  0.5565558852026313  0.11560369277414799  1.0000
  O   O14       1.0  0.4122975314719538  0.4434441147973694  0.6156036927741476  1.0000
  O   O15       1.0  0.9122975314719529  0.05655588520263066  0.11560369277414824  1.0000
  O   O16       1.0  0.9122975314719517  0.9434441147973694  0.6156036927741477  1.0000
  O   O17       1.0  0.5168011853201501  0.6213846208612076  0.2920524769904047  1.0000
  O   O18       1.0  0.51680118532015  0.37861537913879173  0.7920524769904048  1.0000
  O   O19       1.0  0.016801185320148626  0.12138462086120819  0.2920524769904045  1.0000
  O   O20       1.0  0.016801185320150402  0.8786153791387921  0.7920524769904043  1.0000
  O   O21       1.0  0.43470219916086134  0.11626615074821897  0.3914226121379085  1.0000
  O   O22       1.0  0.4347021991608611  0.8837338492517809  0.8914226121379072  1.0000
  O   O23       1.0  0.9347021991608611  0.6162661507482184  0.39142261213790835  1.0000
  O   O24       1.0  0.9347021991608624  0.3837338492517815  0.8914226121379077  1.0000
  O   O25       1.0  0.4899154814096804  0.04483368824369305  0.6047301149653308  1.0000
  O   O26       1.0  0.4899154814096807  0.9551663117563067  0.10473011496533104  1.0000
  O   O27       1.0  0.989915481409681  0.5448336882436937  0.6047301149653307  1.0000
  O   O28       1.0  0.989915481409681  0.45516631175630623  0.10473011496533102  1.0000
  O   O29       1.0  0.6699754549925041  0.8382488000241453  0.3156367830288952  1.0000
  O   O30       1.0  0.6699754549925047  0.16175119997585505  0.815636783028895  1.0000
  O   O31       1.0  0.16997545499250435  0.338248800024145  0.3156367830288951  1.0000
  O   O32       1.0  0.16997545499250435  0.6617511999758547  0.8156367830288954  1.0000
  O   O33       1.0  0.5865950520596624  0.9595530061515104  0.4380252230431679  1.0000
  O   O34       1.0  0.5865950520596621  0.04044699384848819  0.9380252230431682  1.0000
  O   O35       1.0  0.08659505205966292  0.4595530061515117  0.43802522304316754  1.0000
  O   O36       1.0  0.08659505205966296  0.5404469938484872  0.9380252230431677  1.0000
  O   O37       1.0  0.6444295177430583  0.18811118382412934  0.3175742719981074  1.0000
  O   O38       1.0  0.6444295177430583  0.81188881617587  0.8175742719981063  1.0000
  O   O39       1.0  0.14442951774305923  0.6881111838241292  0.3175742719981072  1.0000
  O   O40       1.0  0.14442951774305904  0.3118888161758711  0.817574271998106  1.0000
  O   O41       1.0  0.6838618273398355  0.16960568205092438  0.5913358058130019  1.0000
  O   O42       1.0  0.683861827339835  0.8303943179490755  0.09133580581300232  1.0000
  O   O43       1.0  0.18386182733983525  0.6696056820509236  0.5913358058130022  1.0000
  O   O44       1.0  0.18386182733983533  0.3303943179490761  0.0913358058130024  1.0000
  O   O45       1.0  0.6852628500442274  0.5251482709813402  0.46481648443124834  1.0000
  O   O46       1.0  0.6852628500442289  0.4748517290186599  0.9648164844312478  1.0000
  O   O47       1.0  0.1852628500442288  0.025148270981339316  0.46481648443124846  1.0000
  O   O48       1.0  0.18526285004422868  0.9748517290186599  0.9648164844312482  1.0000
  O   O49       1.0  0.30510117871230535  0.5051425570015952  0.26039145660227914  1.0000
  O   O50       1.0  0.30510117871230563  0.49485744299840484  0.7603914566022794  1.0000
  O   O51       1.0  0.805101178712304  0.0051425570015954936  0.26039145660227914  1.0000
  O   O52       1.0  0.8051011787123049  0.9948574429984048  0.7603914566022796  1.0000
  O   O53       1.0  0.473514933421271  0.3262371327738559  0.25194490613457954  1.0000
  O   O54       1.0  0.47351493342127143  0.6737628672261438  0.751944906134579  1.0000
  O   O55       1.0  0.9735149334212714  0.8262371327738566  0.2519449061345797  1.0000
  O   O56       1.0  0.9735149334212714  0.17376286722614417  0.7519449061345789  1.0000
  O   O57       1.0  0.44853388923926185  0.938508547534338  0.27866211008683883  1.0000
  O   O58       1.0  0.44853388923926235  0.0614914524656629  0.7786621100868386  1.0000
  O   O59       1.0  0.9485338892392621  0.4385085475343371  0.27866211008683894  1.0000
  O   O60       1.0  0.948533889239262  0.5614914524656619  0.778662110086839  1.0000
  O   O61       1.0  0.5262535006919928  0.687573499279147  0.5329276354254503  1.0000
  O   O62       1.0  0.5262535006919928  0.3124265007208538  0.032927635425449076  1.0000
  O   O63       1.0  0.026253500691993066  0.18757349927914652  0.5329276354254501  1.0000
  O   O64       1.0  0.026253500691992886  0.8124265007208523  0.03292763542544863  1.0000
  O   O65       1.0  0.3100175644033853  0.8508525865333315  0.15393497533772232  1.0000
  O   O66       1.0  0.31001756440338546  0.14914741346666782  0.6539349753377214  1.0000
  O   O67       1.0  0.810017564403385  0.35085258653333173  0.1539349753377225  1.0000
  O   O68       1.0  0.8100175644033848  0.6491474134666677  0.6539349753377219  1.0000
  O   O69       1.0  0.7919273738176268  0.9663943607477706  0.4482411403582684  1.0000
  O   O70       1.0  0.7919273738176267  0.03360563925222773  0.9482411403582685  1.0000
  O   O71       1.0  0.2919273738176266  0.46639436074777246  0.4482411403582692  1.0000
  O   O72       1.0  0.2919273738176263  0.5336056392522271  0.9482411403582682  1.0000
  O   O73       1.0  0.6198714261597652  0.42423061178548555  0.6372106096057629  1.0000
  O   O74       1.0  0.6198714261597642  0.5757693882145144  0.13721060960576306  1.0000
  O   O75       1.0  0.11987142615976498  0.9242306117854846  0.6372106096057628  1.0000
  O   O76       1.0  0.11987142615976507  0.07576938821451457  0.13721060960576298  1.0000
  O   O77       1.0  0.36688161915856926  0.7728825756357701  0.41508849757773897  1.0000
  O   O78       1.0  0.3668816191585692  0.2271174243642294  0.9150884975777389  1.0000
  O   O79       1.0  0.8668816191585683  0.27288257563577106  0.41508849757773864  1.0000
  O   O80       1.0  0.8668816191585688  0.7271174243642289  0.9150884975777386  1.0000
  O   O81       1.0  0.7033259506391205  0.8627481207877264  0.5677430054836349  1.0000
  O   O82       1.0  0.7033259506391198  0.13725187921227358  0.06774300548363496  1.0000
  O   O83       1.0  0.20332595063911982  0.3627481207877267  0.5677430054836351  1.0000
  O   O84       1.0  0.20332595063911965  0.637251879212273  0.06774300548363497  1.0000
  Li  Li1       1.0  0.6172409993566687  0.5162025619688313  0.8601535937381289  1.0000
  Li  Li2       1.0  0.6172409993566675  0.4837974380311682  0.36015359373812866  1.0000
  Li  Li3       1.0  0.11724099935666876  0.016202561968831596  0.8601535937381285  1.0000
  Li  Li4       1.0  0.11724099935666873  0.983797438031168  0.36015359373812866  1.0000
  Li  Li5       1.0  0.39069938724938325  0.3909538566220372  0.008966799200368981  1.0000
  Li  Li6       1.0  0.39069938724938286  0.6090461433779617  0.5089667992003685  1.0000
  Li  Li7       1.0  0.8906993872493816  0.8909538566220376  0.008966799200368974  1.0000
  Li  Li8       1.0  0.8906993872493817  0.10904614337796269  0.5089667992003688  1.0000
  Li  Li9       1.0  0.30605115213761225  0.2262718416565617  0.3665371243431767  1.0000
  Li  Li10      1.0  0.30605115213761275  0.7737281583434374  0.8665371243431771  1.0000
  Li  Li11      1.0  0.806051152137613  0.7262718416565621  0.36653712434317703  1.0000
  Li  Li12      1.0  0.806051152137613  0.2737281583434381  0.8665371243431772  1.0000
