data_image0
_chemical_formula_structural       Li4Al4O8
_chemical_formula_sum              "Li4 Al4 O8"
_cell_length_a       5.232638561172155
_cell_length_b       5.2326385611721555
_cell_length_c       6.301065708946609
_cell_angle_alpha    90.0
_cell_angle_beta     90.0
_cell_angle_gamma    90.0

_space_group_name_H-M_alt    "P 1"
_space_group_IT_number       1

loop_
  _space_group_symop_operation_xyz
  'x, y, z'

loop_
  _atom_site_type_symbol
  _atom_site_label
  _atom_site_symmetry_multiplicity
  _atom_site_fract_x
  _atom_site_fract_y
  _atom_site_fract_z
  _atom_site_occupancy
  Li  Li1       1.0  0.31431040424684425  0.6856895957531566  0.7499999999999994  1.0000
  Li  Li2       1.0  0.6856895957531567  0.3143104042468443  0.25000000000000017  1.0000
  Li  Li3       1.0  0.18568959575315616  0.18568959575315616  0.5000000000000003  1.0000
  Li  Li4       1.0  0.8143104042468435  0.8143104042468435  7.398721543186213e-30  1.0000
  Al  Al1       1.0  0.6765266349624248  0.3234733650375761  0.7499999999999994  1.0000
  Al  Al2       1.0  0.3234733650375762  0.6765266349624253  0.25000000000000017  1.0000
  Al  Al3       1.0  0.8234733650375768  0.8234733650375774  0.5000000000000003  1.0000
  Al  Al4       1.0  0.1765266349624246  0.1765266349624245  8.458078944391228e-29  1.0000
  O   O1        1.0  0.8378485360173475  0.20811295037756897  0.9778735697766905  1.0000
  O   O2        1.0  0.16215146398265326  0.7918870496224325  0.47787356977669054  1.0000
  O   O3        1.0  0.7081129503775695  0.6621514639826536  0.7278735697766905  1.0000
  O   O4        1.0  0.2918870496224313  0.3378485360173474  0.22787356977669024  1.0000
  O   O5        1.0  0.7918870496224325  0.1621514639826533  0.5221264302233101  1.0000
  O   O6        1.0  0.20811295037756905  0.8378485360173479  0.022126430223309877  1.0000
  O   O7        1.0  0.6621514639826531  0.7081129503775696  0.27212643022331007  1.0000
  O   O8        1.0  0.33784853601734727  0.29188704962243145  0.7721264302233103  1.0000
