data_image0
_chemical_formula_structural       Ge3AlGeAlGe4AlGeLi9O72P18
_chemical_formula_sum              "Ge9 Al3 Li9 O72 P18"
_cell_length_a       8.385058413712846
_cell_length_b       8.392370217184633
_cell_length_c       20.88752868704392
_cell_angle_alpha    89.8839541683732
_cell_angle_beta     90.15824805610269
_cell_angle_gamma    119.98666709623437

_space_group_name_H-M_alt    "P 1"
_space_group_IT_number       1

loop_
  _space_group_symop_operation_xyz
  'x, y, z'

loop_
  _atom_site_type_symbol
  _atom_site_label
  _atom_site_symmetry_multiplicity
  _atom_site_fract_x
  _atom_site_fract_y
  _atom_site_fract_z
  _atom_site_occupancy
  Ge  Ge1       1.0  0.00012317053695152375  0.0020990872411782335  0.1406532501115758  1.0000
  Ge  Ge2       1.0  0.00036082334521071144  0.9987916358685315  0.35743449029627045  1.0000
  Ge  Ge3       1.0  0.9944607190183258  0.9974837883009878  0.8611713742034458  1.0000
  Al  Al1       1.0  0.0031520268597533137  0.0007217664121066756  0.64424680082184  1.0000
  Ge  Ge4       1.0  0.670155668970273  0.3331449510591235  0.4690049231102594  1.0000
  Al  Al2       1.0  0.6656567664663952  0.3273608694798029  0.6845893824095693  1.0000
  Ge  Ge5       1.0  0.6664869169717921  0.33289683883309423  0.1913200249155523  1.0000
  Ge  Ge6       1.0  0.6702883267165576  0.33760611006348673  0.9739693669810032  1.0000
  Ge  Ge7       1.0  0.33264812818698847  0.6699401109381815  0.8103108702408153  1.0000
  Ge  Ge8       1.0  0.3292103371099138  0.6624533010558952  0.028695698675878626  1.0000
  Al  Al3       1.0  0.33396830559052276  0.6663211707737375  0.518312576606488  1.0000
  Ge  Ge9       1.0  0.33410729910062686  0.6673320271318838  0.3065523996692484  1.0000
  Li  Li1       1.0  0.9955993634674704  0.007496418913193194  0.0026323222742231423  1.0000
  Li  Li2       1.0  0.005130485611369399  0.03710986925669287  0.49604530555869786  1.0000
  Li  Li3       1.0  0.6676429152809736  0.3321337187991626  0.33127967286915794  1.0000
  Li  Li4       1.0  0.3361940455482307  0.6678927726861195  0.16873165058223727  1.0000
  Li  Li5       1.0  0.5448882163343595  0.16060589531850636  0.8190253426758484  1.0000
  Li  Li6       1.0  0.6352528268645172  0.5507830237528255  0.7949046558222452  1.0000
  Li  Li7       1.0  0.3093398554448344  0.3787627666778353  0.6143344065698878  1.0000
  Li  Li8       1.0  0.5154857529185382  0.8529152329758024  0.6433737245153008  1.0000
  Li  Li9       1.0  0.05482318716662669  0.6887250658563445  0.6100380012413485  1.0000
  O   O1        1.0  0.18055047291087126  0.9845774525624622  0.18685578087602556  1.0000
  O   O2        1.0  0.01810267772220933  0.20009398560339697  0.1863466140226143  1.0000
  O   O3        1.0  0.8027001583652241  0.8222637349685328  0.18720277150799192  1.0000
  O   O4        1.0  0.9841169530079188  0.17902530684557508  0.30944256352574506  1.0000
  O   O5        1.0  0.19772867822611473  0.016645950087463248  0.30983354329936524  1.0000
  O   O6        1.0  0.8197321697683831  0.8023223691981208  0.3099740533601451  1.0000
  O   O7        1.0  0.8151784756891398  0.022687124742081385  0.8159398920113192  1.0000
  O   O8        1.0  0.9499260785853489  0.7885085306122377  0.8119779473392155  1.0000
  O   O9        1.0  0.19117968763008583  0.16351534271426255  0.8107270491981385  1.0000
  O   O10       1.0  0.06767940829999688  0.8540254120456756  0.6947614622965307  1.0000
  O   O11       1.0  0.8002411115028909  0.960341178766786  0.6936110421371986  1.0000
  O   O12       1.0  0.1744009407605229  0.21702812691515586  0.6900046426313847  1.0000
  O   O13       1.0  0.8522161508637077  0.3082520573572948  0.5131651494463617  1.0000
  O   O14       1.0  0.6926485072261096  0.5339233857109911  0.51723618913639  1.0000
  O   O15       1.0  0.4749628613587872  0.15469891554310675  0.5190075109507447  1.0000
  O   O16       1.0  0.5861492492947921  0.4606932842217273  0.6333832751814596  1.0000
  O   O17       1.0  0.8678876614705993  0.3848222614878838  0.6319526854773835  1.0000
  O   O18       1.0  0.5076508855701178  0.11109050710830555  0.6397367204459268  1.0000
  O   O19       1.0  0.4839378785268314  0.3444801320489477  0.14437463225344058  1.0000
  O   O20       1.0  0.6517012763931492  0.13730341255854628  0.1439481215374687  1.0000
  O   O21       1.0  0.8610506074482515  0.5148346000886828  0.14376409088268785  1.0000
  O   O22       1.0  0.6717095515118753  0.1483536351933715  0.020702593850790704  1.0000
  O   O23       1.0  0.47538492871211524  0.32868203125020273  0.02110854596204801  1.0000
  O   O24       1.0  0.8542057082616011  0.5320508075215125  0.020631109184261535  1.0000
  O   O25       1.0  0.5323104080107458  0.6669923834816354  0.8552308614468881  1.0000
  O   O26       1.0  0.36330023784414806  0.881977539841091  0.8533802902937394  1.0000
  O   O27       1.0  0.15741462826238098  0.49920604678757535  0.8653515988078329  1.0000
  O   O28       1.0  0.31907674552418275  0.8407168190425235  0.9766836402914698  1.0000
  O   O29       1.0  0.5198836216598641  0.6732964329213358  0.9789156886154697  1.0000
  O   O30       1.0  0.1421871858103548  0.4597478836111326  0.9862929999882636  1.0000
  O   O31       1.0  0.14145074687904902  0.6621530842760887  0.4742617635489635  1.0000
  O   O32       1.0  0.3370115879303105  0.4762713010506813  0.4754479322803307  1.0000
  O   O33       1.0  0.5182626922093558  0.8539884315007438  0.4725307273291172  1.0000
  O   O34       1.0  0.3496392581693979  0.48503330784848697  0.3524878133105143  1.0000
  O   O35       1.0  0.13741855416799734  0.6541941010235943  0.35168464982772857  1.0000
  O   O36       1.0  0.5211174405952742  0.8666261774925024  0.3498420216232021  1.0000
  O   O37       1.0  0.18690870773273147  0.1578077980106468  0.080155493854554  1.0000
  O   O38       1.0  0.8437888061101353  0.03297537901046785  0.08035292469230304  1.0000
  O   O39       1.0  0.9671851312857523  0.8151983149919891  0.08107696038194843  1.0000
  O   O40       1.0  0.15601446360565255  0.18844522520718618  0.41629492556797026  1.0000
  O   O41       1.0  0.03288959303147899  0.8449483933907738  0.41595529685941474  1.0000
  O   O42       1.0  0.8137444643987587  0.9705528734274531  0.41639950397947034  1.0000
  O   O43       1.0  0.8146897297226854  0.8515838319242004  0.9237466774916189  1.0000
  O   O44       1.0  0.1479363893261616  0.9563907161453883  0.917674429380735  1.0000
  O   O45       1.0  0.04033717676807676  0.18864670536547484  0.9198072483212826  1.0000
  O   O46       1.0  0.8607478147906732  0.7759508560661089  0.596099702303965  1.0000
  O   O47       1.0  0.9440028843329441  0.13848482144542576  0.5857141867033429  1.0000
  O   O48       1.0  0.20566936118350837  0.06469813502269386  0.5866067962533862  1.0000
  O   O49       1.0  0.8463554782271537  0.49664862975321994  0.40914893454464824  1.0000
  O   O50       1.0  0.5042197568354881  0.34886093786583633  0.4106691738553462  1.0000
  O   O51       1.0  0.647617235527478  0.15276500469601548  0.4092519319366935  1.0000
  O   O52       1.0  0.8117176350910834  0.5422097567975438  0.7352320812878788  1.0000
  O   O53       1.0  0.7130537787951063  0.18502723747327018  0.7453051430457407  1.0000
  O   O54       1.0  0.4751388039325772  0.28843127854281686  0.7494760651193979  1.0000
  O   O55       1.0  0.48254331905770054  0.17372927851510253  0.24988461146753504  1.0000
  O   O56       1.0  0.8266711264565267  0.3076680079310997  0.2494979157731392  1.0000
  O   O57       1.0  0.6935793675824292  0.5189571397247796  0.2492133282072787  1.0000
  O   O58       1.0  0.4957658616846837  0.1526640921131741  0.9166135543432375  1.0000
  O   O59       1.0  0.6506595729639871  0.5023376608803805  0.9155014933019061  1.0000
  O   O60       1.0  0.8517398247557406  0.34841477201366555  0.917312848219898  1.0000
  O   O61       1.0  0.5133801681985399  0.8400483437283813  0.7511594639577623  1.0000
  O   O62       1.0  0.14677188929858226  0.6611987869859679  0.7594918950249815  1.0000
  O   O63       1.0  0.33795259122665844  0.48738706890759476  0.7595596430694237  1.0000
  O   O64       1.0  0.4952777588975005  0.8503246003341154  0.08445843625034201  1.0000
  O   O65       1.0  0.35698324525800407  0.5063089256825868  0.08721750076322475  1.0000
  O   O66       1.0  0.15142218705394953  0.6520754795498775  0.08651551913091705  1.0000
  O   O67       1.0  0.15656428306188028  0.48028109808312236  0.5766269970389641  1.0000
  O   O68       1.0  0.5219885620154566  0.6760623693666624  0.5777758847761656  1.0000
  O   O69       1.0  0.32052504025410355  0.838500919244761  0.5773056003470729  1.0000
  O   O70       1.0  0.17441237922374414  0.4823527360292687  0.24733604118645552  1.0000
  O   O71       1.0  0.30791163072886796  0.8261511401313999  0.2465245277015463  1.0000
  O   O72       1.0  0.5174441221377871  0.6901057338180517  0.24671400349456984  1.0000
  P   P1        1.0  0.28799466186379546  4.283018108051234e-05  0.2484822385580321  1.0000
  P   P2        1.0  0.0011410129695066384  0.28821176584216013  0.24854153655860856  1.0000
  P   P3        1.0  0.712432691807212  0.712527473212261  0.24847006148293613  1.0000
  P   P4        1.0  0.7179842378912177  0.00497150524552613  0.7514259802424926  1.0000
  P   P5        1.0  0.9975705855126551  0.7152945382981524  0.7502532910186659  1.0000
  P   P6        1.0  0.2872266484558643  0.2835478616158992  0.7518269109176179  1.0000
  P   P7        1.0  0.9508131863489436  0.3252807550836942  0.5774439772447317  1.0000
  P   P8        1.0  0.6668708534518047  0.6122148865763368  0.5808367685723271  1.0000
  P   P9        1.0  0.38073913779376856  0.04718053913200624  0.5801545602805671  1.0000
  P   P10       1.0  0.3795765473821796  0.33351105786591373  0.08292440763159596  1.0000
  P   P11       1.0  0.666004289604241  0.0465332587249652  0.08250992468338039  1.0000
  P   P12       1.0  0.9539244978463305  0.6242727895523684  0.08321437514652165  1.0000
  P   P13       1.0  0.6253902948380153  0.6723972277193978  0.9202728820294702  1.0000
  P   P14       1.0  0.32977897667697087  0.9530721619192721  0.9182641418273673  1.0000
  P   P15       1.0  0.04846948737548361  0.3776634722505848  0.9218408607390282  1.0000
  P   P16       1.0  0.04449061674395316  0.6655072667430818  0.41364490824191213  1.0000
  P   P17       1.0  0.33677092190409696  0.37966642165457837  0.4143519822313465  1.0000
  P   P18       1.0  0.6204508872469392  0.9555806648204397  0.4131102389357105  1.0000
