data_image0
_chemical_formula_structural       Ge2P2Li20P2S24
_chemical_formula_sum              "Ge2 P4 Li20 S24"
_cell_length_a       8.756782982725964
_cell_length_b       8.757557410196299
_cell_length_c       12.798321071683384
_cell_angle_alpha    89.7418859895964
_cell_angle_beta     90.10332989198805
_cell_angle_gamma    90.10794929924432

_space_group_name_H-M_alt    "P 1"
_space_group_IT_number       1

loop_
  _space_group_symop_operation_xyz
  'x, y, z'

loop_
  _atom_site_type_symbol
  _atom_site_label
  _atom_site_symmetry_multiplicity
  _atom_site_fract_x
  _atom_site_fract_y
  _atom_site_fract_z
  _atom_site_occupancy
  Ge  Ge1       1.0  0.5061007601497763  0.002853319989856504  0.181028448816596  1.0000
  Ge  Ge2       1.0  0.49375399163995803  0.9900951276283201  0.6877459251784646  1.0000
  P   P1        1.0  0.0044675983011329135  0.49780117613373565  0.31093063216513395  1.0000
  P   P2        1.0  0.9894864516997558  0.49572159227994855  0.8083857987741582  1.0000
  Li  Li1       1.0  0.7732683999917315  0.23018408196786003  0.3301801700158918  1.0000
  Li  Li2       1.0  0.2519546024335851  0.2642137963242863  0.8332748425296923  1.0000
  Li  Li3       1.0  0.2268895256027304  0.8387554681170818  0.24630761179136726  1.0000
  Li  Li4       1.0  0.2469316567021668  0.7462997684859023  0.7269479886852442  1.0000
  Li  Li5       1.0  0.25886769298674106  0.24770704604713226  0.18216921682214285  1.0000
  Li  Li6       1.0  0.7498374042219169  0.2247949676852799  0.6664964155518044  1.0000
  Li  Li7       1.0  0.7451084258589141  0.7621924591721774  0.19325357025555726  1.0000
  Li  Li8       1.0  0.5187921799983313  0.014453645722496009  0.4325885219242453  1.0000
  Li  Li9       1.0  0.48447636500038443  0.026516329981558093  0.9397912613180842  1.0000
  Li  Li10      1.0  0.0025340284351495716  0.4992015275274215  0.05697324654412691  1.0000
  Li  Li11      1.0  0.0011965099384321784  0.4790408177327657  0.5525642805877652  1.0000
  Li  Li12      1.0  0.24671199400651814  0.7570208169433134  0.9955141616693554  1.0000
  Li  Li13      1.0  0.254420755191503  0.23722923056824588  0.4947370344681801  1.0000
  Li  Li14      1.0  0.7435284039745738  0.25605881781098283  0.0015422749669509184  1.0000
  Li  Li15      1.0  0.7501537365762604  0.7400843568289304  0.5140507963389673  1.0000
  Li  Li16      1.0  0.7349176523825178  0.8103778432274961  0.9218140574273966  1.0000
  Li  Li17      1.0  0.25873997122774034  0.7533384702728921  0.4851492334310212  1.0000
  Li  Li18      1.0  0.5386700857371642  0.5464904542725784  0.7495589487087672  1.0000
  Li  Li19      1.0  0.9924591440206273  0.9849744559620397  0.7344312388007722  1.0000
  Li  Li20      1.0  0.4978449536478373  0.5078744750079751  0.237179829790403  1.0000
  P   P3        1.0  0.49561083802284306  0.5059874804538781  0.9963285167009114  1.0000
  P   P4        1.0  0.0029247188113095146  0.9877869892168591  0.4923196807334497  1.0000
  S   S1        1.0  0.4804676039752038  0.6973303555345831  0.9021753111830288  1.0000
  S   S2        1.0  0.8124678561681687  0.9651186834420429  0.4025435689187709  1.0000
  S   S3        1.0  0.5136940879316959  0.32361217783344304  0.8971067528969353  1.0000
  S   S4        1.0  0.19660129411155577  0.9996098579836514  0.4019977137566119  1.0000
  S   S5        1.0  0.013424593784892903  0.7968827347633779  0.5894732652311035  1.0000
  S   S6        1.0  0.3076958295817957  0.5083647713614753  0.09257299549459302  1.0000
  S   S7        1.0  0.0077897177838145626  0.1758621222609252  0.5881555119185116  1.0000
  S   S8        1.0  0.6864600891188234  0.5088235744519681  0.08989955758293658  1.0000
  S   S9        1.0  0.4857030375548649  0.7629511226706578  0.603006433658499  1.0000
  S   S10       1.0  0.7096880016311493  0.9931592938676128  0.07621550065856399  1.0000
  S   S11       1.0  0.501610033992283  0.19239304506412241  0.5819482297608429  1.0000
  S   S12       1.0  0.2861246187150989  0.0012880664947175534  0.0909180455606377  1.0000
  S   S13       1.0  0.9974010957924023  0.6965683825972961  0.8941747286407308  1.0000
  S   S14       1.0  0.2002757327228138  0.4973564070759885  0.4030249357161961  1.0000
  S   S15       1.0  0.9931134434981886  0.3100351753093364  0.9077871289762909  1.0000
  S   S16       1.0  0.8109627673575543  0.49505855849070857  0.40324407768947057  1.0000
  S   S17       1.0  0.5026304105715257  0.21073843508201445  0.28215062611209213  1.0000
  S   S18       1.0  0.2891399496347915  0.9982213963482329  0.7946179506514772  1.0000
  S   S19       1.0  0.5046256462580232  0.8005121485569047  0.29082564831849217  1.0000
  S   S20       1.0  0.7038327271976503  0.009592393934246173  0.7872101881055881  1.0000
  S   S21       1.0  0.9933132760022352  0.3048168374470141  0.2213480480981019  1.0000
  S   S22       1.0  0.8092385884364072  0.4954640698043832  0.7057622314361023  1.0000
  S   S23       1.0  0.0072568402063937325  0.6839014010173746  0.21185900322710355  1.0000
  S   S24       1.0  0.1828349114143111  0.47828447324395107  0.7169188424015223  1.0000
