data_image0
_chemical_formula_structural       Li21PSn2P3S24
_chemical_formula_sum              "Li21 P4 Sn2 S24"
_cell_length_a       8.801067529810187
_cell_length_b       8.84246915743817
_cell_length_c       12.954140287459907
_cell_angle_alpha    90.08903429611384
_cell_angle_beta     89.94720488825199
_cell_angle_gamma    90.54810174483205

_space_group_name_H-M_alt    "P 1"
_space_group_IT_number       1

loop_
  _space_group_symop_operation_xyz
  'x, y, z'

loop_
  _atom_site_type_symbol
  _atom_site_label
  _atom_site_symmetry_multiplicity
  _atom_site_fract_x
  _atom_site_fract_y
  _atom_site_fract_z
  _atom_site_occupancy
  Li  Li1       1.0  0.24278577414821836  0.26345314094239924  0.8047509018138146  1.0000
  Li  Li2       1.0  0.2579950345504682  0.7648312251248836  0.17148957936775389  1.0000
  Li  Li3       1.0  0.24708325760416658  0.7342646413735745  0.8388875328677003  1.0000
  Li  Li4       1.0  0.3019395394121664  0.3516125540045184  0.25436678372636035  1.0000
  Li  Li5       1.0  0.7547679978933782  0.22975657639369976  0.6817016427554448  1.0000
  Li  Li6       1.0  0.6977463714771079  0.6426328650994984  0.25571598019907105  1.0000
  Li  Li7       1.0  0.4879630913917089  0.9823700081960428  0.43474303427212896  1.0000
  Li  Li8       1.0  0.5023379924866761  0.988003638580129  0.9424449948071744  1.0000
  Li  Li9       1.0  0.006710872869832539  0.5025137619694645  0.058082765121343985  1.0000
  Li  Li10      1.0  0.995786231399629  0.492283551242137  0.5551961647129154  1.0000
  Li  Li11      1.0  0.25214215241435234  0.24595782996696045  0.5021045323219278  1.0000
  Li  Li12      1.0  0.7361986390681728  0.24916585240266736  0.9911356309653995  1.0000
  Li  Li13      1.0  0.7514329910488735  0.7496654089794277  0.5050146821655276  1.0000
  Li  Li14      1.0  0.7528218128256509  0.7435268435593702  0.8016809978887235  1.0000
  Li  Li15      1.0  0.6908778235969595  0.24402803171438026  0.4330775241662619  1.0000
  Li  Li16      1.0  0.24352210186807377  0.7498040107813838  0.49645123032203514  1.0000
  Li  Li17      1.0  0.22629623807070431  0.25929112556269635  0.04504194260169423  1.0000
  Li  Li18      1.0  0.7896724372129537  0.7491570437780195  0.051491708819597  1.0000
  Li  Li19      1.0  0.5068204067394638  0.49508500662303095  0.7510731734121616  1.0000
  Li  Li20      1.0  0.9804068075802832  0.017479432700266487  0.25834884817965365  1.0000
  Li  Li21      1.0  0.006108791304367082  0.9938179705211849  0.7366557096150224  1.0000
  P   P1        1.0  0.5111805123261981  0.009287976662773301  0.18748528638095482  1.0000
  Sn  Sn1       1.0  0.4918841786236101  0.9918591246151162  0.6852690271162982  1.0000
  Sn  Sn2       1.0  0.0006091611166519075  0.49650140998867  0.3069725719179121  1.0000
  P   P2        1.0  0.9909636188528487  0.4970719783938814  0.8137258590455172  1.0000
  P   P3        1.0  0.49921417272612884  0.5066379761461755  0.9973727876154138  1.0000
  P   P4        1.0  0.9975467961258694  0.9987837648474441  0.5022214841963651  1.0000
  S   S1        1.0  0.5106760556945436  0.6903578758202914  0.8988770237970204  1.0000
  S   S2        1.0  0.8079335883421065  0.9931862403745317  0.4095776133498272  1.0000
  S   S3        1.0  0.48771866193691227  0.3149191361898674  0.9060191163258494  1.0000
  S   S4        1.0  0.1835831431977491  0.002953055568590048  0.40645882343761547  1.0000
  S   S5        1.0  1.3729167288562995e-05  0.8086324601002024  0.594283602208312  1.0000
  S   S6        1.0  0.309713401568826  0.5168820613734402  0.08906841943072019  1.0000
  S   S7        1.0  0.006499345051329745  0.18746358381996917  0.5974734979424055  1.0000
  S   S8        1.0  0.6900852802954696  0.49148561675857655  0.0870999383219104  1.0000
  S   S9        1.0  0.49531901616723983  0.7696423361449779  0.5784214992506121  1.0000
  S   S10       1.0  0.7026960766379584  0.008915022872904622  0.09407745955579243  1.0000
  S   S11       1.0  0.5059410558094201  0.22579080006666916  0.5848992564489789  1.0000
  S   S12       1.0  0.32234723778850605  0.008954856042188231  0.09292796364703011  1.0000
  S   S13       1.0  0.9871464405255962  0.6912240136114786  0.9039011802411754  1.0000
  S   S14       1.0  0.22132846241291937  0.4960204795410987  0.4184500807786628  1.0000
  S   S15       1.0  0.9981438707579313  0.30515626672322194  0.9041727307444234  1.0000
  S   S16       1.0  0.7768631517869437  0.5043004097082894  0.41553875125227363  1.0000
  S   S17       1.0  0.5125045067266287  0.1907574645258362  0.2861335311170861  1.0000
  S   S18       1.0  0.27824095456815096  0.997794656091622  0.8035893279503744  1.0000
  S   S19       1.0  0.4917849698393616  0.815377823662622  0.2750187763092623  1.0000
  S   S20       1.0  0.7155914069767819  0.011268272254720307  0.7966023439318626  1.0000
  S   S21       1.0  0.03098917387588013  0.28497617229994976  0.19139743154874392  1.0000
  S   S22       1.0  0.8071899926279671  0.4987130275980602  0.7143748780538334  1.0000
  S   S23       1.0  0.9816125845492015  0.7184552604701107  0.19538419829090026  1.0000
  S   S24       1.0  0.18206308896086168  0.5081303582078023  0.7225501796875872  1.0000
