data_image0
_chemical_formula_structural       Ge2P2Li20P2S24
_chemical_formula_sum              "Ge2 P4 Li20 S24"
_cell_length_a       8.647376281910912
_cell_length_b       8.613174346123541
_cell_length_c       13.95164663392148
_cell_angle_alpha    86.03469466714695
_cell_angle_beta     89.98753303516217
_cell_angle_gamma    78.24286707820887

_space_group_name_H-M_alt    "P 1"
_space_group_IT_number       1

loop_
  _space_group_symop_operation_xyz
  'x, y, z'

loop_
  _atom_site_type_symbol
  _atom_site_label
  _atom_site_symmetry_multiplicity
  _atom_site_fract_x
  _atom_site_fract_y
  _atom_site_fract_z
  _atom_site_occupancy
  Ge  Ge1       1.0  0.5174552582247218  0.9991367589144704  0.22238301231460342  1.0000
  Ge  Ge2       1.0  0.47073066420460635  0.9908051609844456  0.7072281708847898  1.0000
  P   P1        1.0  0.9922332394813381  0.20099525596002893  0.1765008940792558  1.0000
  P   P2        1.0  0.6235681330187808  0.22083080270704797  0.7592858455751696  1.0000
  Li  Li1       1.0  0.7353774213461722  0.20366943074629146  0.3024609915763691  1.0000
  Li  Li2       1.0  0.22314583685102043  0.23845067154672284  0.8012382333199572  1.0000
  Li  Li3       1.0  0.2581597384040202  0.6529694275960302  0.6563750153008696  1.0000
  Li  Li4       1.0  0.2861953111452512  0.6383694623987836  0.9155319622953315  1.0000
  Li  Li5       1.0  0.2535585878069229  0.2558344649979199  0.19234590990002415  1.0000
  Li  Li6       1.0  0.7286604627846922  0.20173258192511895  0.596890790663968  1.0000
  Li  Li7       1.0  0.706970050586079  0.7488531255911332  0.19085342777117034  1.0000
  Li  Li8       1.0  0.5540462701910096  0.010599247228608676  0.43981146042473573  1.0000
  Li  Li9       1.0  0.5543804019593427  0.03396581504554541  0.9273976697758127  1.0000
  Li  Li10      1.0  0.04274607212865026  0.40573720402535024  0.02878548610361891  1.0000
  Li  Li11      1.0  0.9096030778388234  0.5056309675889912  0.6409891105535519  1.0000
  Li  Li12      1.0  0.328340927744691  0.08334737694847294  0.34472036195734423  1.0000
  Li  Li13      1.0  0.31885568623290755  0.25470262898458257  0.47640885566816993  1.0000
  Li  Li14      1.0  0.7679298230574861  0.22792015806115482  0.9699207397815237  1.0000
  Li  Li15      1.0  0.7321232032414338  0.7527890288625957  0.4685997125703637  1.0000
  Li  Li16      1.0  0.7318096757668369  0.7694436230188343  0.9120329816690117  1.0000
  Li  Li17      1.0  0.36144374640795823  0.6421877358210372  0.3895895595348694  1.0000
  Li  Li18      1.0  0.5316386526787515  0.48631868050553284  0.6984073725976621  1.0000
  Li  Li19      1.0  0.9895535083963186  0.0036980385579850803  0.7517334323952278  1.0000
  Li  Li20      1.0  0.5253877319941961  0.4984357450375246  0.2655448571892225  1.0000
  P   P3        1.0  0.48629729032119867  0.2626633069192438  0.9689154236525441  1.0000
  P   P4        1.0  0.07959817666235196  0.0010178723564001767  0.4927482352710851  1.0000
  S   S1        1.0  0.5313979522908897  0.719821814940121  0.07758424528119989  1.0000
  S   S2        1.0  0.8401153424858846  0.9563311466088362  0.4399923874882228  1.0000
  S   S3        1.0  0.520931389662738  0.5425064902467674  0.9027833936719722  1.0000
  S   S4        1.0  0.08050035808230833  0.9847010645516037  0.35638240404531335  1.0000
  S   S5        1.0  0.8699105758300748  0.8040236531487523  0.6281120265743904  1.0000
  S   S6        1.0  0.3153202964403001  0.5793023849905679  0.05384370054082718  1.0000
  S   S7        1.0  0.033628069743961694  0.16327861393921764  0.5685520578256972  1.0000
  S   S8        1.0  0.5979961216217926  0.4893668886163034  0.04389395398486073  1.0000
  S   S9        1.0  0.46088599061595314  0.7873119036322782  0.628242761693656  1.0000
  S   S10       1.0  0.6941076613767004  0.028544506531185152  0.11551771817101258  1.0000
  S   S11       1.0  0.472002747195083  0.18848620582381853  0.5981319410423979  1.0000
  S   S12       1.0  0.33364525979151183  0.15314906782494325  0.048743159904298845  1.0000
  S   S13       1.0  0.9684883185174441  0.7446644210674529  0.7632246922358591  1.0000
  S   S14       1.0  0.7927459401448064  0.3669186609702922  0.4985955557459095  1.0000
  S   S15       1.0  0.8886770178675185  0.5801373542732047  0.8940033386384983  1.0000
  S   S16       1.0  0.9656368780182087  0.607462122472155  0.09649261672830396  1.0000
  S   S17       1.0  0.47184968755161105  0.21044510390081997  0.3093444417427875  1.0000
  S   S18       1.0  0.3004553367698115  0.0571527324056399  0.9124907328933389  1.0000
  S   S19       1.0  0.5177873044623199  0.7949686608857274  0.3239626184423324  1.0000
  S   S20       1.0  0.7036927692211074  0.004647848977039529  0.7868945034568655  1.0000
  S   S21       1.0  0.11811763191713295  0.6031204581984089  0.6182150032885593  1.0000
  S   S22       1.0  0.2867114768240333  0.4252548755065079  0.9208922366912844  1.0000
  S   S23       1.0  0.13104273534246058  0.7552785528828814  0.07313381801327615  1.0000
  S   S24       1.0  0.16054185192824535  0.47602702060307195  0.7504709556235483  1.0000
