data_image0
_chemical_formula_structural       Ge3AlGeAlGe4AlGeLi9O72P18
_chemical_formula_sum              "Ge9 Al3 Li9 O72 P18"
_cell_length_a       8.164635323020947
_cell_length_b       8.203161582747134
_cell_length_c       22.57768354583473
_cell_angle_alpha    87.08566807574938
_cell_angle_beta     90.697953240433
_cell_angle_gamma    117.1935473961767

_space_group_name_H-M_alt    "P 1"
_space_group_IT_number       1

loop_
  _space_group_symop_operation_xyz
  'x, y, z'

loop_
  _atom_site_type_symbol
  _atom_site_label
  _atom_site_symmetry_multiplicity
  _atom_site_fract_x
  _atom_site_fract_y
  _atom_site_fract_z
  _atom_site_occupancy
  Ge  Ge1       1.0  0.002442984954838061  0.0025511518819560258  0.15758913590030665  1.0000
  Ge  Ge2       1.0  0.993288510999163  0.9949683114063063  0.3528552540121806  1.0000
  Ge  Ge3       1.0  0.024231801535302355  0.02765271435047591  0.8340410000577696  1.0000
  Al  Al1       1.0  0.09339798551507068  0.19272654540811257  0.6859238059630934  1.0000
  Ge  Ge4       1.0  0.6406333954446827  0.31146345635076933  0.5107753454876236  1.0000
  Al  Al2       1.0  0.6989556596830143  0.36004287030539095  0.8141103319026641  1.0000
  Ge  Ge5       1.0  0.6716039084185484  0.33197269739287044  0.1722289318139244  1.0000
  Ge  Ge6       1.0  0.6441186882697284  0.3131313350158915  0.967728842611865  1.0000
  Ge  Ge7       1.0  0.319630334608937  0.6630515477495413  0.7765727012593256  1.0000
  Ge  Ge8       1.0  0.33948823331658656  0.6470092572153217  0.9803733919037779  1.0000
  Al  Al3       1.0  0.3370102313005788  0.6666541069399581  0.545420144011347  1.0000
  Ge  Ge9       1.0  0.34317784715581123  0.6668485044754823  0.3319615831112966  1.0000
  Li  Li1       1.0  0.9681176304058844  0.9380992349275633  0.9420175352499802  1.0000
  Li  Li2       1.0  0.04621031679203743  0.04745165404886987  0.4905584227077331  1.0000
  Li  Li3       1.0  0.6725058014769119  0.33172708047870597  0.3132864553458822  1.0000
  Li  Li4       1.0  0.33259196924175055  0.6634174340328535  0.08761973517024954  1.0000
  Li  Li5       1.0  0.94736305695701  0.6168325803815523  0.517116185730954  1.0000
  Li  Li6       1.0  0.05279798753442955  0.04299066389425921  0.5794777826947088  1.0000
  Li  Li7       1.0  0.3140248162887694  0.3570618688272306  0.5722050691431685  1.0000
  Li  Li8       1.0  0.6852355295136057  0.04073010720929049  0.5433931454993642  1.0000
  Li  Li9       1.0  0.9086284978700608  0.7086433499435659  0.4518270817193952  1.0000
  O   O1        1.0  0.1394638422225826  0.9194832689433488  0.2061487317207413  1.0000
  O   O2        1.0  0.07747588947750274  0.2149422364046182  0.20841462302817038  1.0000
  O   O3        1.0  0.7925745960752355  0.8655388534414878  0.2076740320212399  1.0000
  O   O4        1.0  0.9203186679468535  0.13881594715789866  0.30987960654029534  1.0000
  O   O5        1.0  0.19435389325218996  0.07320860462412501  0.30405587420127933  1.0000
  O   O6        1.0  0.8669057989747582  0.795120260005848  0.3088677657742292  1.0000
  O   O7        1.0  0.8237232688987867  0.9228057959634285  0.790773624152233  1.0000
  O   O8        1.0  0.13180643928128744  0.9061966701670852  0.7923019602241392  1.0000
  O   O9        1.0  0.14518704651886455  0.25769083216890454  0.7992844200489186  1.0000
  O   O10       1.0  0.8139663007444597  0.7705893440757289  0.7190504184471791  1.0000
  O   O11       1.0  0.8164206492909181  0.05580616132122729  0.6859261088668385  1.0000
  O   O12       1.0  0.320415199910811  0.15274534651248947  0.7304548955859625  1.0000
  O   O13       1.0  0.856538440404957  0.37810641511933046  0.5651863720112229  1.0000
  O   O14       1.0  0.5264852054287782  0.414238589931612  0.566326812004102  1.0000
  O   O15       1.0  0.5110617031572005  0.06699053392019579  0.5720425217907766  1.0000
  O   O16       1.0  0.617075321417907  0.4692845160083552  0.6730736546800736  1.0000
  O   O17       1.0  0.89483407208172  0.44020998485271473  0.672711657470073  1.0000
  O   O18       1.0  0.44452283612929244  0.998201047648826  0.6808903865402136  1.0000
  O   O19       1.0  0.5353671405875033  0.40866083248595086  0.1235055539806848  1.0000
  O   O20       1.0  0.600130116908254  0.1323261356622253  0.12577027943248276  1.0000
  O   O21       1.0  0.8703758186456736  0.4686304119248034  0.12440254059252936  1.0000
  O   O22       1.0  0.7543264249052551  0.20983467762980268  0.01900961614881656  1.0000
  O   O23       1.0  0.47161557898682827  0.2482195578286339  0.023120013993555313  1.0000
  O   O24       1.0  0.8026699632625918  0.5576091719108329  0.01987354042232183  1.0000
  O   O25       1.0  0.48321375874832684  0.6196246065640996  0.841207286341966  1.0000
  O   O26       1.0  0.3980925900009022  0.831060475638248  0.8547563624628609  1.0000
  O   O27       1.0  0.13743629069296556  0.5614925442703664  0.8508841141018122  1.0000
  O   O28       1.0  0.26280123746700385  0.8483554831560993  0.9626463625964989  1.0000
  O   O29       1.0  0.5980107467732746  0.79834017400288  0.9468871395119144  1.0000
  O   O30       1.0  0.17392162700752567  0.4230832662203104  0.9506348764090534  1.0000
  O   O31       1.0  0.1786068943433297  0.7431842394105747  0.4924146211297095  1.0000
  O   O32       1.0  0.24165848890122657  0.48239141470021607  0.47414848926856273  1.0000
  O   O33       1.0  0.5147480375865694  0.7657793054567467  0.4806122267399663  1.0000
  O   O34       1.0  0.442409694102577  0.5292229449968615  0.3797312223792833  1.0000
  O   O35       1.0  0.10098028813490499  0.5441811578555755  0.3828647893621863  1.0000
  O   O36       1.0  0.45489137064096774  0.8962176911706697  0.38401272010751947  1.0000
  O   O37       1.0  0.22651815367209058  0.1911849439786111  0.10623008709494013  1.0000
  O   O38       1.0  0.8363828761753558  0.04677513569421213  0.10930706814403866  1.0000
  O   O39       1.0  0.9679844310678892  0.7987703219690032  0.10337626515299485  1.0000
  O   O40       1.0  0.19506956609194048  0.21078187442698573  0.4117982911738433  1.0000
  O   O41       1.0  0.03429606005621135  0.8124207989458258  0.4061360204603445  1.0000
  O   O42       1.0  0.7870942865368296  0.975074639037482  0.41428774723830447  1.0000
  O   O43       1.0  0.8251049871857346  0.8190611326443198  0.8797176868237935  1.0000
  O   O44       1.0  0.19186000999665587  0.00044374521609102935  0.8871052730935521  1.0000
  O   O45       1.0  0.007278225013218433  0.20017472696600286  0.8830758159190258  1.0000
  O   O46       1.0  0.8265465940238451  0.6833215570057686  0.5661707766658752  1.0000
  O   O47       1.0  0.9786465041877862  0.1939659113253085  0.6035251566017827  1.0000
  O   O48       1.0  0.19113766055105819  0.042053291925810005  0.6242276466612625  1.0000
  O   O49       1.0  0.8309250496179823  0.5072252792957844  0.47261132649978776  1.0000
  O   O50       1.0  0.4547199606054206  0.33183787056783204  0.470144152235086  1.0000
  O   O51       1.0  0.6465812646221716  0.11291734554346948  0.47009668451920733  1.0000
  O   O52       1.0  0.8835031292239529  0.6091783210829909  0.836546403825488  1.0000
  O   O53       1.0  0.8161368698178799  0.1779456501551297  0.7832812889786634  1.0000
  O   O54       1.0  0.42408520376201836  0.20048615490743296  0.8369818240352653  1.0000
  O   O55       1.0  0.4664521904688247  0.14699077246058664  0.2378939033485023  1.0000
  O   O56       1.0  0.8446677861714951  0.3292738413330481  0.23849146029173018  1.0000
  O   O57       1.0  0.6705730580145307  0.5258369865101076  0.2434189813983469  1.0000
  O   O58       1.0  0.5526397030938931  0.12376059010719807  0.9073318657540893  1.0000
  O   O59       1.0  0.6017429536292777  0.49813562857745813  0.9226775381496798  1.0000
  O   O60       1.0  0.8543296151832592  0.38944985313792496  0.9089197835524733  1.0000
  O   O61       1.0  0.5287156974120465  0.8426937262400153  0.7434134912598463  1.0000
  O   O62       1.0  0.07238975445038344  0.6206882677433515  0.7468793558604968  1.0000
  O   O63       1.0  0.4061756171003177  0.47106420309699154  0.7450282248800911  1.0000
  O   O64       1.0  0.5376748865825185  0.8894771334868415  0.051709646046058315  1.0000
  O   O65       1.0  0.38026271616298285  0.4872851008273154  0.039573319080676926  1.0000
  O   O66       1.0  0.120977609203052  0.6415468551350101  0.0484912101407138  1.0000
  O   O67       1.0  0.1654999782194902  0.4825080343875502  0.6072787239831963  1.0000
  O   O68       1.0  0.5479512887462369  0.6973090350140071  0.6024664264042566  1.0000
  O   O69       1.0  0.2429000609170605  0.7890504513674056  0.605476700585253  1.0000
  O   O70       1.0  0.1603984437076041  0.45720489137947723  0.28730517750057827  1.0000
  O   O71       1.0  0.2863513458329475  0.8303609159595017  0.2903835880820155  1.0000
  O   O72       1.0  0.5435195316933562  0.7170439794963809  0.28748688326564936  1.0000
  P   P1        1.0  0.2773625175443256  0.9952122014592796  0.25751051849996975  1.0000
  P   P2        1.0  0.009510799307810958  0.2919418618272371  0.2578443757195132  1.0000
  P   P3        1.0  0.7165049450530171  0.7211143080895888  0.25944658853008334  1.0000
  P   P4        1.0  0.7282955839130539  0.004982881442562018  0.7474671807192009  1.0000
  P   P5        1.0  0.9523368701485685  0.7249242187065771  0.7744658039078912  1.0000
  P   P6        1.0  0.34245840486373647  0.2787079399624938  0.7838441895471032  1.0000
  P   P7        1.0  0.9524330974331431  0.368358392444236  0.6223001781177276  1.0000
  P   P8        1.0  0.6507290589622372  0.5698321069814245  0.6110154291452299  1.0000
  P   P9        1.0  0.35594919921924306  0.9862609269528796  0.6233454359914509  1.0000
  P   P10       1.0  0.39927949558621884  0.3234636395578411  0.07240429413143092  1.0000
  P   P11       1.0  0.6812508869169839  0.0684113260109447  0.07421771903136805  1.0000
  P   P12       1.0  0.9354404105322421  0.6205677019910306  0.07240226407498325  1.0000
  P   P13       1.0  0.620101688385828  0.6870062725711737  0.8933664804851288  1.0000
  P   P14       1.0  0.3526880781739492  0.9427026893058456  0.8983565802348432  1.0000
  P   P15       1.0  0.049863251275348144  0.39831281238524635  0.8940418753065502  1.0000
  P   P16       1.0  0.10088932663684336  0.6568188510766828  0.433364067337998  1.0000
  P   P17       1.0  0.33358318054685154  0.3986459475021163  0.43319519038148463  1.0000
  P   P18       1.0  0.5907242820255361  0.9308999854823358  0.43561084713935155  1.0000
