data_image0
_chemical_formula_structural       Ge3AlGeAlGe4AlGeLi9O72P18
_chemical_formula_sum              "Ge9 Al3 Li9 O72 P18"
_cell_length_a       8.394445792703694
_cell_length_b       8.394016812475067
_cell_length_c       20.90030914947635
_cell_angle_alpha    90.00174262293615
_cell_angle_beta     90.00066576174504
_cell_angle_gamma    120.0010021025056

_space_group_name_H-M_alt    "P 1"
_space_group_IT_number       1

loop_
  _space_group_symop_operation_xyz
  'x, y, z'

loop_
  _atom_site_type_symbol
  _atom_site_label
  _atom_site_symmetry_multiplicity
  _atom_site_fract_x
  _atom_site_fract_y
  _atom_site_fract_z
  _atom_site_occupancy
  Ge  Ge1       1.0  0.0009998493913901006  0.0027154838546356998  0.14108239865420902  1.0000
  Ge  Ge2       1.0  0.9997392187225235  0.9987258722475125  0.3573822438641905  1.0000
  Ge  Ge3       1.0  0.9944080890839367  0.9967601968285357  0.8607174572085429  1.0000
  Al  Al1       1.0  0.000990576224361761  0.00010485279887037  0.6442267929068428  1.0000
  Ge  Ge4       1.0  0.6709013010571914  0.3346006325426867  0.46850377230704754  1.0000
  Al  Al2       1.0  0.6659124953191184  0.328567792758644  0.683949650047951  1.0000
  Ge  Ge5       1.0  0.6668482066194016  0.33216025434525204  0.1918394654325654  1.0000
  Ge  Ge6       1.0  0.6698788423337225  0.3380413772676063  0.974959369419726  1.0000
  Ge  Ge7       1.0  0.33188753370195967  0.6704875838050403  0.8111071185902359  1.0000
  Ge  Ge8       1.0  0.32947708663379116  0.6616451359546053  0.029311063013258594  1.0000
  Al  Al3       1.0  0.33356186732262527  0.665721578639258  0.5178467589046086  1.0000
  Ge  Ge9       1.0  0.3349231858900308  0.6690158742785735  0.30699822767374924  1.0000
  Li  Li1       1.0  0.9971579423866855  0.0024142688358144825  0.002843093733844669  1.0000
  Li  Li2       1.0  0.0063600511547697944  0.02668722471788161  0.4931587362512244  1.0000
  Li  Li3       1.0  0.6633035984382771  0.3308354460214305  0.3305041509828136  1.0000
  Li  Li4       1.0  0.33729963249734035  0.6659270750470191  0.1693216801401215  1.0000
  Li  Li5       1.0  0.531311033436786  0.15880698534238233  0.8169173344613917  1.0000
  Li  Li6       1.0  0.64337754723479  0.5512047204520019  0.7967390254188073  1.0000
  Li  Li7       1.0  0.30498067310732485  0.36800669923676316  0.611257845499034  1.0000
  Li  Li8       1.0  0.5230192235069758  0.8578424714811539  0.641659829200755  1.0000
  Li  Li9       1.0  0.05910399477889013  0.6870593937159762  0.6125224808656526  1.0000
  O   O1        1.0  0.1820300811380874  0.9866613592285197  0.18716934810543118  1.0000
  O   O2        1.0  0.017464133327097568  0.2002436871911599  0.18673416461003303  1.0000
  O   O3        1.0  0.8036487489781506  0.8210298392603914  0.18718179696884707  1.0000
  O   O4        1.0  0.9864019460442709  0.18024276511802986  0.30956415304160306  1.0000
  O   O5        1.0  0.1957412462394776  0.014158188291002637  0.3099473295889746  1.0000
  O   O6        1.0  0.8191655165911024  0.8041878244722025  0.3098487897582412  1.0000
  O   O7        1.0  0.8194988957299454  0.023545647735348924  0.8140310503401801  1.0000
  O   O8        1.0  0.9460755424427457  0.7838234701019886  0.8126817181577802  1.0000
  O   O9        1.0  0.19566108285203268  0.15726370924189492  0.8106663032714743  1.0000
  O   O10       1.0  0.06579277671476126  0.8560625767148965  0.6958036934423221  1.0000
  O   O11       1.0  0.7962778987042771  0.9610399595290939  0.6920741917183797  1.0000
  O   O12       1.0  0.17073113093305176  0.21538216089882645  0.6906752418675576  1.0000
  O   O13       1.0  0.8511115012088191  0.3082622491352377  0.51349372800444  1.0000
  O   O14       1.0  0.6947953624793055  0.5377536399106119  0.5153109437214454  1.0000
  O   O15       1.0  0.47506344371558723  0.1577261525872025  0.5188880164241504  1.0000
  O   O16       1.0  0.5878525868422279  0.46106405874650175  0.6312915363453823  1.0000
  O   O17       1.0  0.8688815025738482  0.3838163140202822  0.6323794971606157  1.0000
  O   O18       1.0  0.5087862296580791  0.11209034451612485  0.6391068854666506  1.0000
  O   O19       1.0  0.4849170612290488  0.34190386071967516  0.14394157450309328  1.0000
  O   O20       1.0  0.6528330289208227  0.13496721135189724  0.1454955544868256  1.0000
  O   O21       1.0  0.8604538672774685  0.5137329916115109  0.143996694353732  1.0000
  O   O22       1.0  0.6701804239088465  0.14961133064042106  0.022431081652350957  1.0000
  O   O23       1.0  0.47400413191995333  0.3297848190032853  0.020822844185977893  1.0000
  O   O24       1.0  0.8536544035381041  0.5327138379771841  0.021418095418378292  1.0000
  O   O25       1.0  0.5294877468998976  0.6616832470153997  0.8554565426072884  1.0000
  O   O26       1.0  0.364875921573675  0.8845189168779302  0.8534513426483104  1.0000
  O   O27       1.0  0.15280001062410734  0.5060550346307161  0.866258429370185  1.0000
  O   O28       1.0  0.3184563263438688  0.8395028764413595  0.9765265245737297  1.0000
  O   O29       1.0  0.5199563279124463  0.6734847165480669  0.9793001919363825  1.0000
  O   O30       1.0  0.14386711635165786  0.458401342367602  0.9864811602157849  1.0000
  O   O31       1.0  0.1412150238831334  0.661171735473927  0.47378827384958033  1.0000
  O   O32       1.0  0.3379985273645234  0.4756557574994855  0.47572480934434946  1.0000
  O   O33       1.0  0.5150993453642478  0.8534038260160296  0.4716167148493457  1.0000
  O   O34       1.0  0.3475546403974537  0.4859850256132089  0.3530923366013414  1.0000
  O   O35       1.0  0.13965273402071568  0.6606338054990433  0.3513245473273436  1.0000
  O   O36       1.0  0.5236402961365227  0.8683588656441139  0.3493619092932913  1.0000
  O   O37       1.0  0.18619827087848595  0.15907859868926066  0.08048794999381133  1.0000
  O   O38       1.0  0.842238326251171  0.0297495395466257  0.08051267971050195  1.0000
  O   O39       1.0  0.9724317049366199  0.8167921961842601  0.08164370043657078  1.0000
  O   O40       1.0  0.15807750789472227  0.18819059748547615  0.41612894575988385  1.0000
  O   O41       1.0  0.0292099780848324  0.8437663639473773  0.4171180759880526  1.0000
  O   O42       1.0  0.8136401556431352  0.9719724684263381  0.41691563315488483  1.0000
  O   O43       1.0  0.8127004164568533  0.8546671410699404  0.9232342662337064  1.0000
  O   O44       1.0  0.14690509663203555  0.9556360532372193  0.9179406446380071  1.0000
  O   O45       1.0  0.04357293976771481  0.19151734629738498  0.9180312954699862  1.0000
  O   O46       1.0  0.8631154179464159  0.7758716839544463  0.5957555826478191  1.0000
  O   O47       1.0  0.9449132042257427  0.13857461280165814  0.5853100092483621  1.0000
  O   O48       1.0  0.20761746281044027  0.06738825957522107  0.587615066486622  1.0000
  O   O49       1.0  0.8479709458419584  0.4954818789790714  0.40823104580740854  1.0000
  O   O50       1.0  0.5055156287643119  0.35064755244920104  0.40987462965388527  1.0000
  O   O51       1.0  0.6480246056429517  0.1535242972811573  0.4091608885068031  1.0000
  O   O52       1.0  0.8139564335130912  0.5419774678240455  0.7345072531793345  1.0000
  O   O53       1.0  0.7041769782073279  0.1799796277685178  0.7455700569156166  1.0000
  O   O54       1.0  0.47599633544121606  0.2964862239964449  0.7484020547491259  1.0000
  O   O55       1.0  0.4818594922724155  0.17603815954052915  0.2508083532975622  1.0000
  O   O56       1.0  0.826238469553135  0.3074317928394269  0.2503899746765912  1.0000
  O   O57       1.0  0.6950063702282265  0.5197708373218511  0.24947049437443675  1.0000
  O   O58       1.0  0.4950898290744369  0.15379785294756496  0.9172188187445472  1.0000
  O   O59       1.0  0.6549894661384125  0.5054476839493307  0.9158472516222645  1.0000
  O   O60       1.0  0.8496440702870384  0.3442794619957805  0.9191148087554752  1.0000
  O   O61       1.0  0.5136663534417999  0.8354943507287225  0.7518726905247867  1.0000
  O   O62       1.0  0.14970376831000332  0.6651336322433281  0.7594898239036462  1.0000
  O   O63       1.0  0.32585136984191915  0.48326651457503433  0.7608937274182989  1.0000
  O   O64       1.0  0.4939523382326479  0.8503859793000098  0.0847461662695803  1.0000
  O   O65       1.0  0.359290105050692  0.5073985737266116  0.08805886193010312  1.0000
  O   O66       1.0  0.15069434019516087  0.6486429808045439  0.08692747666888495  1.0000
  O   O67       1.0  0.15652449403578364  0.4799268042807145  0.576169939193803  1.0000
  O   O68       1.0  0.5257804715517941  0.6796021930115228  0.5760205048442945  1.0000
  O   O69       1.0  0.32060754741924413  0.8401679281244651  0.5765214535787441  1.0000
  O   O70       1.0  0.17362222192372767  0.4833558591908422  0.24769422174258093  1.0000
  O   O71       1.0  0.3117786872334087  0.8287217001734487  0.24618490814198019  1.0000
  O   O72       1.0  0.5169887501266909  0.6883732021866057  0.24679533794772585  1.0000
  P   P1        1.0  0.2884244686799125  0.0005005145751935608  0.24871795706353914  1.0000
  P   P2        1.0  0.0011333937886757184  0.28891134079100383  0.24896845681001079  1.0000
  P   P3        1.0  0.7124793526482455  0.7125191100867249  0.2485483403310015  1.0000
  P   P4        1.0  0.7157849597787899  0.0033935082837758096  0.7511972663020606  1.0000
  P   P5        1.0  0.9982183646427798  0.7151875322918908  0.7504878599197047  1.0000
  P   P6        1.0  0.28469865140453615  0.2836924314977521  0.7520069505500158  1.0000
  P   P7        1.0  0.9509933259022192  0.32487193883969046  0.5772330790860867  1.0000
  P   P8        1.0  0.6690516801010707  0.6141112312272522  0.5793342869407704  1.0000
  P   P9        1.0  0.3813938429540634  0.048830304058299565  0.579774525727496  1.0000
  P   P10       1.0  0.3797991979285561  0.33349778967077015  0.08331974450650532  1.0000
  P   P11       1.0  0.6659796534847068  0.04575888872544395  0.08336741763773997  1.0000
  P   P12       1.0  0.9547129346198515  0.6239247871432327  0.08382529676116558  1.0000
  P   P13       1.0  0.6250469597845141  0.6728710617435346  0.9204687370202032  1.0000
  P   P14       1.0  0.3297486142281439  0.9536981519602011  0.9187186278944307  1.0000
  P   P15       1.0  0.047937214374231  0.3784478343821722  0.922120630386937  1.0000
  P   P16       1.0  0.04439388154066979  0.6660058638834352  0.41351725556550945  1.0000
  P   P17       1.0  0.3375041002701748  0.38008374973808967  0.41426450780261276  1.0000
  P   P18       1.0  0.6204113405883717  0.9565724763074458  0.4129489574807401  1.0000
