data_image0
_chemical_formula_structural       Li21PSn2P3S24
_chemical_formula_sum              "Li21 P4 Sn2 S24"
_cell_length_a       8.829801532242872
_cell_length_b       8.83955665509003
_cell_length_c       12.91496769652947
_cell_angle_alpha    90.00020280301617
_cell_angle_beta     90.00089574982533
_cell_angle_gamma    90.00053698148753

_space_group_name_H-M_alt    "P 1"
_space_group_IT_number       1

loop_
  _space_group_symop_operation_xyz
  'x, y, z'

loop_
  _atom_site_type_symbol
  _atom_site_label
  _atom_site_symmetry_multiplicity
  _atom_site_fract_x
  _atom_site_fract_y
  _atom_site_fract_z
  _atom_site_occupancy
  Li  Li1       1.0  0.23684620741324  0.26383061787948325  0.806870646533732  1.0000
  Li  Li2       1.0  0.25477796109221457  0.7619533559437031  0.17224158333201608  1.0000
  Li  Li3       1.0  0.24613718749775085  0.7316576071870132  0.836299067520764  1.0000
  Li  Li4       1.0  0.30020076581119454  0.3535495963415875  0.2541752086627116  1.0000
  Li  Li5       1.0  0.76439497137559  0.2310114623791238  0.6808640081307511  1.0000
  Li  Li6       1.0  0.7015375242986772  0.6401394265967556  0.25525510254317557  1.0000
  Li  Li7       1.0  0.4913348020727447  0.9692315452997903  0.4236764211135472  1.0000
  Li  Li8       1.0  0.49674054164014675  0.9799878592969843  0.9435701681600908  1.0000
  Li  Li9       1.0  0.006189006267101663  0.5052561011351837  0.06101328210474872  1.0000
  Li  Li10      1.0  0.9959745431482738  0.48621416995432704  0.5581778126856456  1.0000
  Li  Li11      1.0  0.25768228326554854  0.250216395179004  0.5019076234177491  1.0000
  Li  Li12      1.0  0.7330748399179323  0.24319984298020947  0.9905068847097762  1.0000
  Li  Li13      1.0  0.7562233647040651  0.7584884765969776  0.5015377737185269  1.0000
  Li  Li14      1.0  0.7479049911650856  0.7453125172755135  0.8036550050098235  1.0000
  Li  Li15      1.0  0.6858697856853886  0.2492224269146458  0.4333828542776124  1.0000
  Li  Li16      1.0  0.24610146692046192  0.7545118402521391  0.4956618463386464  1.0000
  Li  Li17      1.0  0.22601867790478702  0.25815959978347364  0.044939179636781776  1.0000
  Li  Li18      1.0  0.7840933291092428  0.7435228837901161  0.05235241814315411  1.0000
  Li  Li19      1.0  0.5224016608528046  0.46723716849453206  0.7543656549589741  1.0000
  Li  Li20      1.0  0.9874067914604572  0.01859870476326138  0.25818745895162765  1.0000
  Li  Li21      1.0  0.011095531457199768  0.9907920587445366  0.7365329996023107  1.0000
  P   P1        1.0  0.5063007315283855  0.00494437006840513  0.1854696605918929  1.0000
  Sn  Sn1       1.0  0.4969821085486845  0.001993205205446659  0.683833723712413  1.0000
  Sn  Sn2       1.0  0.0013108605170159301  0.4969844346953087  0.3106932975930366  1.0000
  P   P2        1.0  0.9885235426593871  0.4985159076544614  0.8154618376778827  1.0000
  P   P3        1.0  0.4947474688107847  0.5043595557084759  0.9978188455142948  1.0000
  P   P4        1.0  0.0013881203670305011  0.0024130700452706594  0.49981129110494876  1.0000
  S   S1        1.0  0.5072695518491186  0.6862787284562631  0.8975582509725588  1.0000
  S   S2        1.0  0.8111760431865102  0.0028509640245627417  0.4077548353551257  1.0000
  S   S3        1.0  0.47878127884849164  0.3102152996589888  0.9089402929099137  1.0000
  S   S4        1.0  0.1885695249905426  0.00636822531011105  0.40539185833279756  1.0000
  S   S5        1.0  0.0029201030456892764  0.8110854833878881  0.5915120820229234  1.0000
  S   S6        1.0  0.30627745891781993  0.515098033235102  0.09074262391224516  1.0000
  S   S7        1.0  0.01186632354998781  0.18948130092440696  0.5970260385051621  1.0000
  S   S8        1.0  0.6871697918172164  0.48841014808761607  0.08658634818263321  1.0000
  S   S9        1.0  0.5002786842345006  0.7848680362966184  0.572945937160168  1.0000
  S   S10       1.0  0.6951064887167467  0.005473681856147943  0.08984403301482419  1.0000
  S   S11       1.0  0.5096792016081033  0.24502959195141027  0.5935503050626704  1.0000
  S   S12       1.0  0.3154921992174552  0.006094880556388926  0.09218441756822314  1.0000
  S   S13       1.0  0.98367037993811  0.6929208327850733  0.9054193682696116  1.0000
  S   S14       1.0  0.2244350265721241  0.49854090117130867  0.4176838591025658  1.0000
  S   S15       1.0  0.9961928481338425  0.3080606776679372  0.908489979653724  1.0000
  S   S16       1.0  0.7782371005210308  0.5065384401246354  0.41870670631332446  1.0000
  S   S17       1.0  0.5070760955991802  0.18468216435711352  0.28775913289764377  1.0000
  S   S18       1.0  0.2813325231996468  0.9984096474962824  0.8001252759673414  1.0000
  S   S19       1.0  0.4915966007974581  0.8079758474001595  0.27128484349147924  1.0000
  S   S20       1.0  0.719071086186191  0.014808779054716347  0.7964992182896602  1.0000
  S   S21       1.0  0.030604749764364347  0.28712916651408665  0.1929362647309291  1.0000
  S   S22       1.0  0.8050267109620044  0.5003079398035002  0.7153604918376048  1.0000
  S   S23       1.0  0.9772619819427474  0.7197039469772359  0.19865575119019727  1.0000
  S   S24       1.0  0.1784491807765897  0.5085630826032621  0.7235804294204353  1.0000
