data_image0
_chemical_formula_structural       Ge2P2Li20P2S24
_chemical_formula_sum              "Ge2 P4 Li20 S24"
_cell_length_a       8.776046699857131
_cell_length_b       8.773207014366763
_cell_length_c       12.714066333732921
_cell_angle_alpha    89.99980899181209
_cell_angle_beta     89.99931188154254
_cell_angle_gamma    89.99991514500444

_space_group_name_H-M_alt    "P 1"
_space_group_IT_number       1

loop_
  _space_group_symop_operation_xyz
  'x, y, z'

loop_
  _atom_site_type_symbol
  _atom_site_label
  _atom_site_symmetry_multiplicity
  _atom_site_fract_x
  _atom_site_fract_y
  _atom_site_fract_z
  _atom_site_occupancy
  Ge  Ge1       1.0  0.5045079313114429  0.0009760229215091073  0.1835602362913064  1.0000
  Ge  Ge2       1.0  0.49800729318444964  0.0006481639455933892  0.6911941416515345  1.0000
  P   P1        1.0  0.0023162572100147837  0.4992476845425161  0.3138460175357171  1.0000
  P   P2        1.0  0.990774393665722  0.5015233811951741  0.8113151962232166  1.0000
  Li  Li1       1.0  0.7709833423256884  0.2315993964966327  0.3259730279176967  1.0000
  Li  Li2       1.0  0.24587056525925446  0.26018635018968145  0.8256821111751397  1.0000
  Li  Li3       1.0  0.2274579421482858  0.8346188691405364  0.24351595620442718  1.0000
  Li  Li4       1.0  0.25656705631819027  0.7521376786287152  0.7085760259248146  1.0000
  Li  Li5       1.0  0.2596146530064169  0.2530923814735258  0.18141212802902365  1.0000
  Li  Li6       1.0  0.7602154798656316  0.22778603775831563  0.6637542057366171  1.0000
  Li  Li7       1.0  0.7359399499132029  0.7529215115619652  0.18429099027599308  1.0000
  Li  Li8       1.0  0.5210572393848705  0.013197122885403888  0.44159201172213763  1.0000
  Li  Li9       1.0  0.473703627598965  0.023792696051098766  0.9464165181130922  1.0000
  Li  Li10      1.0  0.9945019772200279  0.5006737193406816  0.06381716390737946  1.0000
  Li  Li11      1.0  0.0030764569683030775  0.47707746754806113  0.5574308484779184  1.0000
  Li  Li12      1.0  0.24736828725951104  0.7619180322677332  0.9884156867796704  1.0000
  Li  Li13      1.0  0.26128019136577507  0.24412072898573822  0.49133758727739557  1.0000
  Li  Li14      1.0  0.7441618697725721  0.22248156222534324  0.9651197388738783  1.0000
  Li  Li15      1.0  0.7535394803692848  0.7419488170215341  0.5069408902885681  1.0000
  Li  Li16      1.0  0.7325916787642738  0.8077349559434561  0.9187490016196858  1.0000
  Li  Li17      1.0  0.26689264001806423  0.7588586902820653  0.4761152098990215  1.0000
  Li  Li18      1.0  0.5372645601337129  0.5054868099433364  0.7580323427960102  1.0000
  Li  Li19      1.0  0.9873105780994521  0.9735021435190515  0.7360712739451157  1.0000
  Li  Li20      1.0  0.4953933523724775  0.5060256644664457  0.23994770652044686  1.0000
  P   P3        1.0  0.49285436900804835  0.5040102765222154  0.9993313859004629  1.0000
  P   P4        1.0  0.007004014109084852  0.9931896613771143  0.4938944247997471  1.0000
  S   S1        1.0  0.48439178653402837  0.6883463674792332  0.8992370463409936  1.0000
  S   S2        1.0  0.8128984837604496  0.9781052188906652  0.4072363157936274  1.0000
  S   S3        1.0  0.4966791548761729  0.31525300699320336  0.9027482001483556  1.0000
  S   S4        1.0  0.19723252857766374  0.006042774146835524  0.40036126358891744  1.0000
  S   S5        1.0  0.017975828453871443  0.797557556454188  0.5860357878119474  1.0000
  S   S6        1.0  0.30479550902523644  0.5165425708396283  0.09471297463901024  1.0000
  S   S7        1.0  0.019062241451941853  0.1761890018493354  0.5952620263986524  1.0000
  S   S8        1.0  0.683735472447222  0.4971261498048923  0.09086033542829836  1.0000
  S   S9        1.0  0.49150584000340064  0.7820388993914567  0.5964859684059788  1.0000
  S   S10       1.0  0.704556629978564  0.9874891403489311  0.0754629987412929  1.0000
  S   S11       1.0  0.50266662886445  0.20731866857543493  0.5898640772841565  1.0000
  S   S12       1.0  0.28449596596189886  0.0022456728905195194  0.09278327327293007  1.0000
  S   S13       1.0  0.993327701064026  0.6995885282021904  0.9002019876215283  1.0000
  S   S14       1.0  0.19982060826406098  0.5005010283924132  0.4046937595373439  1.0000
  S   S15       1.0  0.9996997429566826  0.3173118129305959  0.9114392666011689  1.0000
  S   S16       1.0  0.8129350731724008  0.48982699605439917  0.40997063273930423  1.0000
  S   S17       1.0  0.4985383142880305  0.20904598441998926  0.28601955391936057  1.0000
  S   S18       1.0  0.29137889156534297  0.9920208149255713  0.7963255916213983  1.0000
  S   S19       1.0  0.5049947449362671  0.7969064116560539  0.29219083465570295  1.0000
  S   S20       1.0  0.7091384162940207  0.021347385791331573  0.7925724061510372  1.0000
  S   S21       1.0  0.9934568586269135  0.3100075486749453  0.21970880554081665  1.0000
  S   S22       1.0  0.8086697836187008  0.49878012566402896  0.7090383374427194  1.0000
  S   S23       1.0  0.00014893181225751804  0.6888560703414244  0.2185556583095878  1.0000
  S   S24       1.0  0.18363967667387177  0.48579643891325236  0.7181010700226335  1.0000
