data_image0
_chemical_formula_structural       Sn8Ge20Na15O64
_chemical_formula_sum              "Sn8 Ge20 Na15 O64"
_cell_length_a       6.57831
_cell_length_b       12.1377
_cell_length_c       19.43
_cell_angle_alpha    90.0949
_cell_angle_beta     89.8185
_cell_angle_gamma    90.2025

_space_group_name_H-M_alt    "P 1"
_space_group_IT_number       1

loop_
  _space_group_symop_operation_xyz
  'x, y, z'

loop_
  _atom_site_type_symbol
  _atom_site_label
  _atom_site_symmetry_multiplicity
  _atom_site_fract_x
  _atom_site_fract_y
  _atom_site_fract_z
  _atom_site_occupancy
  Sn  Sn1       1.0  0.20992  0.53182  0.39099  1.0000
  Sn  Sn2       1.0  0.78444  0.46283  0.60975  1.0000
  Sn  Sn3       1.0  0.28606  0.96002  0.89213  1.0000
  Sn  Sn4       1.0  0.71161  0.03812  0.10941  1.0000
  Sn  Sn5       1.0  0.78483  0.53849  0.11052  1.0000
  Sn  Sn6       1.0  0.21385  0.46020  0.89251  1.0000
  Sn  Sn7       1.0  0.70860  0.96538  0.61068  1.0000
  Sn  Sn8       1.0  0.28587  0.03205  0.39279  1.0000
  Ge  Ge1       1.0  0.71384  0.49344  0.43424  1.0000
  Ge  Ge2       1.0  0.28436  0.49955  0.56557  1.0000
  Ge  Ge3       1.0  0.78323  0.99787  0.93462  1.0000
  Ge  Ge4       1.0  0.21367  0.00218  0.06655  1.0000
  Ge  Ge5       1.0  0.28266  0.50232  0.06753  1.0000
  Ge  Ge6       1.0  0.71724  0.49515  0.93677  1.0000
  Ge  Ge7       1.0  0.21116  0.00004  0.56821  1.0000
  Ge  Ge8       1.0  0.78231  0.99600  0.43539  1.0000
  Ge  Ge9       1.0  0.48965  0.16024  0.25038  1.0000
  Ge  Ge10      1.0  0.49979  0.83640  0.75153  1.0000
  Ge  Ge11      1.0  0.00038  0.34105  0.75072  1.0000
  Ge  Ge12      1.0  0.00565  0.66210  0.25151  1.0000
  Ge  Ge13      1.0  0.46439  0.29248  0.38142  1.0000
  Ge  Ge14      1.0  0.53415  0.70293  0.61936  1.0000
  Ge  Ge15      1.0  0.03159  0.19990  0.87908  1.0000
  Ge  Ge16      1.0  0.96849  0.80010  0.12252  1.0000
  Ge  Ge17      1.0  0.52794  0.30088  0.12328  1.0000
  Ge  Ge18      1.0  0.47754  0.69911  0.88149  1.0000
  Ge  Ge19      1.0  0.96585  0.20467  0.62107  1.0000
  Ge  Ge20      1.0  0.03173  0.79229  0.38504  1.0000
  Na  Na1       1.0  0.49827  0.23631  0.54604  1.0000
  Na  Na2       1.0  0.50506  0.75437  0.45979  1.0000
  Na  Na3       1.0  0.98369  0.26525  0.03963  1.0000
  Na  Na4       1.0  0.01043  0.72943  0.95666  1.0000
  Na  Na5       1.0  0.48435  0.23410  0.96229  1.0000
  Na  Na6       1.0  0.51504  0.76478  0.04088  1.0000
  Na  Na7       1.0  0.99865  0.25947  0.45836  1.0000
  Na  Na8       1.0  0.95017  0.02028  0.27280  1.0000
  Na  Na9       1.0  0.02549  0.98509  0.73884  1.0000
  Na  Na10      1.0  0.50085  0.50007  0.75161  1.0000
  Na  Na11      1.0  0.54171  0.51951  0.26960  1.0000
  Na  Na12      1.0  0.08301  0.38942  0.23570  1.0000
  Na  Na13      1.0  0.03073  0.71795  0.61980  1.0000
  Na  Na14      1.0  0.56906  0.12149  0.76695  1.0000
  Na  Na15      1.0  0.40530  0.88903  0.23527  1.0000
  O   O1        1.0  0.91409  0.48787  0.37408  1.0000
  O   O2        1.0  0.08039  0.51084  0.62352  1.0000
  O   O3        1.0  0.58551  0.00459  0.87351  1.0000
  O   O4        1.0  0.41055  0.99709  0.12798  1.0000
  O   O5        1.0  0.08454  0.49599  0.12900  1.0000
  O   O6        1.0  0.91424  0.49335  0.87621  1.0000
  O   O7        1.0  0.41283  0.00909  0.62700  1.0000
  O   O8        1.0  0.58332  0.99355  0.37510  1.0000
  O   O9        1.0  0.77200  0.54422  0.51584  1.0000
  O   O10       1.0  0.21979  0.44703  0.48382  1.0000
  O   O11       1.0  0.70695  0.95145  0.01677  1.0000
  O   O12       1.0  0.29029  0.04831  0.98454  1.0000
  O   O13       1.0  0.20828  0.54817  0.98562  1.0000
  O   O14       1.0  0.78676  0.44875  0.01972  1.0000
  O   O15       1.0  0.27651  0.94924  0.48629  1.0000
  O   O16       1.0  0.71868  0.04847  0.51717  1.0000
  O   O17       1.0  0.51988  0.57146  0.39392  1.0000
  O   O18       1.0  0.47771  0.41873  0.60312  1.0000
  O   O19       1.0  0.98281  0.91428  0.90361  1.0000
  O   O20       1.0  0.01391  0.08559  0.09787  1.0000
  O   O21       1.0  0.48238  0.58585  0.09930  1.0000
  O   O22       1.0  0.51535  0.41202  0.90661  1.0000
  O   O23       1.0  0.01805  0.92297  0.61083  1.0000
  O   O24       1.0  0.97834  0.07639  0.39696  1.0000
  O   O25       1.0  0.64119  0.34890  0.44130  1.0000
  O   O26       1.0  0.35759  0.64455  0.56002  1.0000
  O   O27       1.0  0.85512  0.14223  0.93990  1.0000
  O   O28       1.0  0.14347  0.85765  0.06182  1.0000
  O   O29       1.0  0.35283  0.35759  0.06295  1.0000
  O   O30       1.0  0.65395  0.64174  0.94182  1.0000
  O   O31       1.0  0.13683  0.14366  0.56011  1.0000
  O   O32       1.0  0.85031  0.85235  0.44175  1.0000
  O   O33       1.0  0.34165  0.19015  0.43065  1.0000
  O   O34       1.0  0.65049  0.80916  0.57230  1.0000
  O   O35       1.0  0.14820  0.30138  0.93049  1.0000
  O   O36       1.0  0.85779  0.69485  0.07250  1.0000
  O   O37       1.0  0.64281  0.19661  0.07332  1.0000
  O   O38       1.0  0.35627  0.80312  0.93060  1.0000
  O   O39       1.0  0.84709  0.30583  0.57035  1.0000
  O   O40       1.0  0.16516  0.68918  0.42827  1.0000
  O   O41       1.0  0.29530  0.38450  0.34152  1.0000
  O   O42       1.0  0.70841  0.61271  0.65677  1.0000
  O   O43       1.0  0.20339  0.10576  0.84184  1.0000
  O   O44       1.0  0.79173  0.89179  0.15905  1.0000
  O   O45       1.0  0.69854  0.39393  0.16213  1.0000
  O   O46       1.0  0.31511  0.60190  0.84424  1.0000
  O   O47       1.0  0.79320  0.11240  0.66040  1.0000
  O   O48       1.0  0.19660  0.88718  0.34361  1.0000
  O   O49       1.0  0.61963  0.24093  0.31381  1.0000
  O   O50       1.0  0.37390  0.75284  0.68715  1.0000
  O   O51       1.0  0.87408  0.24632  0.81006  1.0000
  O   O52       1.0  0.12886  0.75651  0.19231  1.0000
  O   O53       1.0  0.36512  0.25310  0.19163  1.0000
  O   O54       1.0  0.62692  0.75096  0.81225  1.0000
  O   O55       1.0  0.12547  0.25578  0.68721  1.0000
  O   O56       1.0  0.87881  0.74031  0.31651  1.0000
  O   O57       1.0  0.29099  0.08246  0.28691  1.0000
  O   O58       1.0  0.69978  0.91280  0.71439  1.0000
  O   O59       1.0  0.21291  0.39890  0.79126  1.0000
  O   O60       1.0  0.79670  0.60009  0.21094  1.0000
  O   O61       1.0  0.69786  0.09604  0.21084  1.0000
  O   O62       1.0  0.29321  0.90369  0.79005  1.0000
  O   O63       1.0  0.79011  0.40376  0.71149  1.0000
  O   O64       1.0  0.20293  0.58087  0.28500  1.0000
