data_image0
_chemical_formula_structural       Li4Al4Cl16
_chemical_formula_sum              "Li4 Al4 Cl16"
_cell_length_a       7.004
_cell_length_b       6.502999999999999
_cell_length_c       12.996000000000002
_cell_angle_alpha    90.0
_cell_angle_beta     93.3
_cell_angle_gamma    90.0

_space_group_name_H-M_alt    "P 1"
_space_group_IT_number       1

loop_
  _space_group_symop_operation_xyz
  'x, y, z'

loop_
  _atom_site_type_symbol
  _atom_site_label
  _atom_site_symmetry_multiplicity
  _atom_site_fract_x
  _atom_site_fract_y
  _atom_site_fract_z
  _atom_site_occupancy
  Li  Li1       1.0  0.14826491055842908  0.518551611301231  0.871723993960156  1.0000
  Li  Li2       1.0  0.8517350894415712  0.018551611301231098  0.628276006039844  1.0000
  Li  Li3       1.0  0.8517350894415711  0.48144838869876927  0.12827600603984338  1.0000
  Li  Li4       1.0  0.1482649105584291  0.9814483886987687  0.3717239939601564  1.0000
  Al  Al1       1.0  0.7031075960877335  0.16774820979041966  0.39753048960803034  1.0000
  Al  Al2       1.0  0.29689240391226634  0.6677482097904196  0.1024695103919697  1.0000
  Al  Al3       1.0  0.29689240391226657  0.8322517902095806  0.6024695103919696  1.0000
  Al  Al4       1.0  0.7031075960877338  0.33225179020958084  0.8975304896080316  1.0000
  Cl  Cl1       1.0  0.694871632744458  0.3207403820590165  0.5435720338706636  1.0000
  Cl  Cl2       1.0  0.3051283672555414  0.8207403820590168  0.9564279661293366  1.0000
  Cl  Cl3       1.0  0.30512836725554143  0.679259617940984  0.4564279661293365  1.0000
  Cl  Cl4       1.0  0.6948716327444577  0.17925961794098488  0.04357203387066324  1.0000
  Cl  Cl5       1.0  0.809883643573692  0.8612349161794663  0.43427913811331714  1.0000
  Cl  Cl6       1.0  0.1901163564263089  0.36123491617946585  0.0657208618866825  1.0000
  Cl  Cl7       1.0  0.19011635642630906  0.13876508382053443  0.5657208618866829  1.0000
  Cl  Cl8       1.0  0.8098836435736921  0.6387650838205339  0.9342791381133173  1.0000
  Cl  Cl9       1.0  0.9265336849169054  0.2984095816389701  0.30791507276026436  1.0000
  Cl  Cl10      1.0  0.07346631508309384  0.7984095816389707  0.19208492723973578  1.0000
  Cl  Cl11      1.0  0.07346631508309383  0.7015904183610296  0.6920849272397359  1.0000
  Cl  Cl12      1.0  0.9265336849169052  0.2015904183610303  0.8079150727602641  1.0000
  Cl  Cl13      1.0  0.43437863747788374  0.16870528310366636  0.3105033186765313  1.0000
  Cl  Cl14      1.0  0.5656213625221166  0.6687052831036653  0.18949668132346842  1.0000
  Cl  Cl15      1.0  0.5656213625221166  0.8312947168963349  0.6894966813234672  1.0000
  Cl  Cl16      1.0  0.4343786374778838  0.3312947168963342  0.8105033186765328  1.0000
