# generated using pymatgen
data_Li3AlGe3(PO4)6
_symmetry_space_group_name_H-M   'P 1'
_cell_length_a   8.25658000
_cell_length_b   8.37344238
_cell_length_c   8.25658000
_cell_angle_alpha   90.00000000
_cell_angle_beta   120.00000000
_cell_angle_gamma   60.46060714
_symmetry_Int_Tables_number   1
_chemical_formula_structural   Li3AlGe3(PO4)6
_chemical_formula_sum   'Li3 Al1 Ge3 P6 O24'
_cell_volume   406.42291698
_cell_formula_units_Z   1
loop_
 _symmetry_equiv_pos_site_id
 _symmetry_equiv_pos_as_xyz
  1  'x, y, z'
loop_
 _atom_type_symbol
 _atom_type_oxidation_number
  Li+  1.0
  Al3+  3.0
  Ge4+  4.0
  P5+  5.0
  O2-  -2.0
loop_
 _atom_site_type_symbol
 _atom_site_label
 _atom_site_symmetry_multiplicity
 _atom_site_fract_x
 _atom_site_fract_y
 _atom_site_fract_z
 _atom_site_occupancy
  Li+  Li0  1  0.10020001  0.67220000  0.66959999  1
  Li+  Li1  1  0.89719998  0.67220000  0.22760004  1
  Li+  Li2  1  0.00000000  0.00000000  0.00000000  1
  Al3+  Al3  1  0.71658009  0.92512994  0.35829011  1
  Ge4+  Ge4  1  0.71658005  0.42512994  0.85829004  1
  Ge4+  Ge5  1  0.28341998  0.07487006  0.64171003  1
  Ge4+  Ge6  1  0.28341995  0.57487006  0.14170996  1
  P5+  P7  1  0.21260000  0.25000000  0.25000000  1.0
  P5+  P8  1  0.78740000  0.25000000  0.53740000  1.0
  P5+  P9  1  0.50000000  0.25000000  0.96260000  1.0
  P5+  P10  1  0.21260000  0.75000000  0.46260000  1.0
  P5+  P11  1  0.50000000  0.75000000  0.03740000  1.0
  P5+  P12  1  0.78740000  0.75000000  0.75000000  1.0
  O2-  O13  1  0.42394000  0.06709000  0.28957000  1.0
  O2-  O14  1  0.79854000  0.06709000  0.50897000  1.0
  O2-  O15  1  0.64334000  0.06709000  0.13437000  1.0
  O2-  O16  1  0.42394000  0.56709000  0.63437000  1.0
  O2-  O17  1  0.64334000  0.56709000  0.00897000  1.0
  O2-  O18  1  0.79854000  0.56709000  0.78957000  1.0
  O2-  O19  1  0.57606000  0.93291000  0.71043000  1.0
  O2-  O20  1  0.20146000  0.93291000  0.49103000  1.0
  O2-  O21  1  0.35666000  0.93291000  0.86563000  1.0
  O2-  O22  1  0.57606000  0.43291000  0.36563000  1.0
  O2-  O23  1  0.35666000  0.43291000  0.99103000  1.0
  O2-  O24  1  0.20146000  0.43291000  0.21043000  1.0
  O2-  O25  1  0.80706000  0.75296000  0.57788000  1.0
  O2-  O26  1  0.01786000  0.75296000  0.43998000  1.0
  O2-  O27  1  0.66916000  0.75296000  0.22918000  1.0
  O2-  O28  1  0.80706000  0.25296000  0.72918000  1.0
  O2-  O29  1  0.66916000  0.25296000  0.93998000  1.0
  O2-  O30  1  0.01786000  0.25296000  0.07788000  1.0
  O2-  O31  1  0.19294000  0.24704000  0.42212000  1.0
  O2-  O32  1  0.98214000  0.24704000  0.56002000  1.0
  O2-  O33  1  0.33084000  0.24704000  0.77082000  1.0
  O2-  O34  1  0.19294000  0.74704000  0.27082000  1.0
  O2-  O35  1  0.33084000  0.74704000  0.06002000  1.0
  O2-  O36  1  0.98214000  0.74704000  0.92212000  1.0
