data_image0
_chemical_formula_structural       Fe12V24O84Li20
_chemical_formula_sum              "Fe12 V24 O84 Li20"
_cell_length_a       13.978184014466397
_cell_length_b       8.412462092417426
_cell_length_c       14.414183840343322
_cell_angle_alpha    90.0
_cell_angle_beta     95.49486841975353
_cell_angle_gamma    90.0

_space_group_name_H-M_alt    "P 1"
_space_group_IT_number       1

loop_
  _space_group_symop_operation_xyz
  'x, y, z'

loop_
  _atom_site_type_symbol
  _atom_site_label
  _atom_site_symmetry_multiplicity
  _atom_site_fract_x
  _atom_site_fract_y
  _atom_site_fract_z
  _atom_site_occupancy
  Fe  Fe1       1.0  0.4966545124401475  0.8008493654075545  0.37522809120404527  1.0000
  Fe  Fe2       1.0  0.49665451244014747  0.1991506345924447  0.8752280912040462  1.0000
  Fe  Fe3       1.0  0.996654512440148  0.3008493654075558  0.37522809120404577  1.0000
  Fe  Fe4       1.0  0.9966545124401479  0.6991506345924452  0.8752280912040459  1.0000
  Fe  Fe5       1.0  0.8497174169966716  0.8113723511335329  0.5338088699549328  1.0000
  Fe  Fe6       1.0  0.8497174169966725  0.1886276488664673  0.03380886995493241  1.0000
  Fe  Fe7       1.0  0.3497174169966719  0.3113723511335327  0.533808869954933  1.0000
  Fe  Fe8       1.0  0.34971741699667164  0.6886276488664673  0.03380886995493239  1.0000
  Fe  Fe9       1.0  0.7180691765596853  0.31826930655245006  0.7077010571148625  1.0000
  Fe  Fe10      1.0  0.7180691765596853  0.681730693447551  0.20770105711486306  1.0000
  Fe  Fe11      1.0  0.2180691765596854  0.8182693065524496  0.7077010571148631  1.0000
  Fe  Fe12      1.0  0.2180691765596854  0.18173069344755047  0.2077010571148631  1.0000
  V   V1        1.0  0.43887035997688745  0.031035067349783188  0.17271352019032896  1.0000
  V   V2        1.0  0.438870359976888  0.9689649326502167  0.6727135201903297  1.0000
  V   V3        1.0  0.9388703599768883  0.5310350673497836  0.17271352019032887  1.0000
  V   V4        1.0  0.9388703599768882  0.4689649326502172  0.6727135201903286  1.0000
  V   V5        1.0  0.6945565534230966  0.9550232498778948  0.35038258113734433  1.0000
  V   V6        1.0  0.6945565534230956  0.044976750122106  0.8503825811373446  1.0000
  V   V7        1.0  0.19455655342309602  0.4550232498778939  0.3503825811373443  1.0000
  V   V8        1.0  0.1945565534230961  0.5449767501221051  0.8503825811373453  1.0000
  V   V9        1.0  0.572081763284238  0.4586512324376335  0.5123337461453751  1.0000
  V   V10       1.0  0.5720817632842373  0.5413487675623662  0.012333746145374825  1.0000
  V   V11       1.0  0.07208176328423728  0.958651232437632  0.5123337461453752  1.0000
  V   V12       1.0  0.07208176328423727  0.0413487675623667  0.012333746145374828  1.0000
  V   V13       1.0  0.6488887155973129  0.9543734038515567  0.5599490804453713  1.0000
  V   V14       1.0  0.6488887155973122  0.04562659614844322  0.059949080445371325  1.0000
  V   V15       1.0  0.14888871559731257  0.4543734038515569  0.5599490804453708  1.0000
  V   V16       1.0  0.14888871559731248  0.545626596148443  0.05994908044537129  1.0000
  V   V17       1.0  0.27588605763174434  0.9611082977024825  0.40068191376108686  1.0000
  V   V18       1.0  0.27588605763174423  0.03889170229751677  0.9006819137610874  1.0000
  V   V19       1.0  0.7758860576317439  0.4611082977024837  0.4006819137610873  1.0000
  V   V20       1.0  0.7758860576317445  0.5388917022975164  0.9006819137610877  1.0000
  V   V21       1.0  0.40385084345402456  0.45476884635052256  0.23829270028790356  1.0000
  V   V22       1.0  0.4038508434540238  0.5452311536494773  0.7382927002879038  1.0000
  V   V23       1.0  0.9038508434540247  0.9547688463505243  0.23829270028790364  1.0000
  V   V24       1.0  0.9038508434540257  0.045231153649477655  0.7382927002879032  1.0000
  O   O1        1.0  0.47880936000445634  0.32559772468323495  0.4802748515194677  1.0000
  O   O2        1.0  0.4788093600044558  0.6744022753167658  0.9802748515194676  1.0000
  O   O3        1.0  0.9788093600044562  0.8255977246832343  0.4802748515194675  1.0000
  O   O4        1.0  0.9788093600044563  0.1744022753167659  0.9802748515194674  1.0000
  O   O5        1.0  0.34389148988652635  0.1548043399469628  0.14150765675138824  1.0000
  O   O6        1.0  0.34389148988652607  0.8451956600530374  0.6415076567513889  1.0000
  O   O7        1.0  0.8438914898865247  0.6548043399469623  0.14150765675138843  1.0000
  O   O8        1.0  0.8438914898865254  0.3451956600530373  0.6415076567513889  1.0000
  O   O9        1.0  0.2433850170820677  0.9621683186226009  0.2807466167979471  1.0000
  O   O10       1.0  0.24338501708206778  0.037831681377400686  0.7807466167979473  1.0000
  O   O11       1.0  0.743385017082069  0.46216831862260016  0.2807466167979472  1.0000
  O   O12       1.0  0.743385017082068  0.5378316813774007  0.7807466167979478  1.0000
  O   O13       1.0  0.3908880728333184  0.49594206901297816  0.11867660616044416  1.0000
  O   O14       1.0  0.3908880728333173  0.5040579309870219  0.6186766061604446  1.0000
  O   O15       1.0  0.8908880728333187  0.9959420690129783  0.11867660616044418  1.0000
  O   O16       1.0  0.890888072833317  0.004057930987022419  0.6186766061604456  1.0000
  O   O17       1.0  0.4278428589210789  0.6449448032505903  0.28564767925542905  1.0000
  O   O18       1.0  0.4278428589210789  0.3550551967494103  0.7856476792554291  1.0000
  O   O19       1.0  0.9278428589210789  0.14494480325058962  0.28564767925542944  1.0000
  O   O20       1.0  0.9278428589210768  0.8550551967494098  0.785647679255429  1.0000
  O   O21       1.0  0.3063335676803076  0.1464220175590882  0.44089813557248336  1.0000
  O   O22       1.0  0.3063335676803076  0.8535779824409117  0.9408981355724836  1.0000
  O   O23       1.0  0.8063335676803078  0.6464220175590881  0.44089813557248314  1.0000
  O   O24       1.0  0.8063335676803077  0.3535779824409119  0.9408981355724841  1.0000
  O   O25       1.0  0.5451774433372574  0.9030211828965883  0.6221390433671034  1.0000
  O   O26       1.0  0.5451774433372573  0.09697881710341173  0.12213904336710249  1.0000
  O   O27       1.0  0.045177443337256845  0.4030211828965887  0.622139043367103  1.0000
  O   O28       1.0  0.045177443337256845  0.596978817103412  0.12213904336710267  1.0000
  O   O29       1.0  0.6156487797673545  0.7945994585886984  0.297773285307518  1.0000
  O   O30       1.0  0.6156487797673553  0.20540054141130135  0.7977732853075189  1.0000
  O   O31       1.0  0.11564877976735546  0.29459945858869885  0.297773285307518  1.0000
  O   O32       1.0  0.11564877976735555  0.7054005414113013  0.7977732853075183  1.0000
  O   O33       1.0  0.5868264008244966  0.9678116633886512  0.4394370804857632  1.0000
  O   O34       1.0  0.5868264008244968  0.03218833661134905  0.9394370804857644  1.0000
  O   O35       1.0  0.08682640082449683  0.4678116633886507  0.4394370804857633  1.0000
  O   O36       1.0  0.0868264008244968  0.5321883366113489  0.9394370804857636  1.0000
  O   O37       1.0  0.6775833128062406  0.13426928325770496  0.302455484162668  1.0000
  O   O38       1.0  0.6775833128062411  0.8657307167422953  0.8024554841626691  1.0000
  O   O39       1.0  0.17758331280624065  0.6342692832577049  0.3024554841626677  1.0000
  O   O40       1.0  0.1775833128062409  0.36573071674229535  0.8024554841626681  1.0000
  O   O41       1.0  0.6797329232223602  0.13523587726595862  0.6026383768251123  1.0000
  O   O42       1.0  0.6797329232223613  0.864764122734042  0.10263837682511205  1.0000
  O   O43       1.0  0.17973292322236084  0.6352358772659582  0.6026383768251126  1.0000
  O   O44       1.0  0.17973292322236087  0.3647641227340415  0.10263837682511205  1.0000
  O   O45       1.0  0.6743063562802637  0.3904775997252133  0.45705246970954694  1.0000
  O   O46       1.0  0.6743063562802634  0.6095224002747874  0.9570524697095472  1.0000
  O   O47       1.0  0.1743063562802637  0.8904775997252128  0.4570524697095468  1.0000
  O   O48       1.0  0.1743063562802637  0.10952240027478735  0.9570524697095478  1.0000
  O   O49       1.0  0.2957245085870596  0.3796910244385196  0.2836905594663988  1.0000
  O   O50       1.0  0.2957245085870596  0.6203089755614793  0.7836905594663993  1.0000
  O   O51       1.0  0.7957245085870596  0.87969102443852  0.28369055946639876  1.0000
  O   O52       1.0  0.7957245085870596  0.12030897556148061  0.7836905594663993  1.0000
  O   O53       1.0  0.49825300842697323  0.3333242013447224  0.26770097828957534  1.0000
  O   O54       1.0  0.49825300842697406  0.6666757986552769  0.7677009782895751  1.0000
  O   O55       1.0  0.9982530084269736  0.8333242013447218  0.2677009782895754  1.0000
  O   O56       1.0  0.9982530084269736  0.16667579865527773  0.7677009782895752  1.0000
  O   O57       1.0  0.4555133697785221  0.998139871647046  0.29234536956556745  1.0000
  O   O58       1.0  0.4555133697785219  0.0018601283529535717  0.7923453695655677  1.0000
  O   O59       1.0  0.9555133697785211  0.49813987164704615  0.2923453695655671  1.0000
  O   O60       1.0  0.9555133697785209  0.5018601283529537  0.7923453695655669  1.0000
  O   O61       1.0  0.5418998196814772  0.6451988423687083  0.47194107168024935  1.0000
  O   O62       1.0  0.541899819681477  0.3548011576312919  0.9719410716802503  1.0000
  O   O63       1.0  0.04189981968147719  0.1451988423687085  0.4719410716802497  1.0000
  O   O64       1.0  0.04189981968147726  0.854801157631292  0.97194107168025  1.0000
  O   O65       1.0  0.4112363093835975  0.8411832116498177  0.12968361486389718  1.0000
  O   O66       1.0  0.4112363093835975  0.15881678835018265  0.6296836148638976  1.0000
  O   O67       1.0  0.9112363093835978  0.34118321164981785  0.12968361486389712  1.0000
  O   O68       1.0  0.9112363093835978  0.6588167883501825  0.6296836148638983  1.0000
  O   O69       1.0  0.7657828106162692  0.9735715585761219  0.463518872644046  1.0000
  O   O70       1.0  0.7657828106162704  0.02642844142387872  0.9635188726440471  1.0000
  O   O71       1.0  0.2657828106162699  0.4735715585761215  0.4635188726440462  1.0000
  O   O72       1.0  0.2657828106162703  0.5264284414238783  0.9635188726440467  1.0000
  O   O73       1.0  0.6023227601310158  0.45468119422551234  0.63262927192976  1.0000
  O   O74       1.0  0.6023227601310159  0.5453188057744874  0.13262927192976026  1.0000
  O   O75       1.0  0.10232276013101589  0.9546811942255125  0.6326292719297605  1.0000
  O   O76       1.0  0.10232276013101595  0.04531880577448757  0.1326292719297602  1.0000
  O   O77       1.0  0.36925440991148534  0.8274895034375788  0.4307055371284132  1.0000
  O   O78       1.0  0.36925440991148495  0.17251049656242087  0.9307055371284132  1.0000
  O   O79       1.0  0.8692544099114862  0.32748950343757927  0.43070553712841303  1.0000
  O   O80       1.0  0.8692544099114853  0.6725104965624207  0.9307055371284133  1.0000
  O   O81       1.0  0.7263675435224748  0.8016264359833563  0.6061560334593503  1.0000
  O   O82       1.0  0.7263675435224749  0.198373564016644  0.10615603345934946  1.0000
  O   O83       1.0  0.22636754352247518  0.301626435983356  0.6061560334593505  1.0000
  O   O84       1.0  0.22636754352247512  0.6983735640166442  0.10615603345934949  1.0000
  Li  Li1       1.0  0.6200398067430299  0.674273242275017  0.7079060182372461  1.0000
  Li  Li2       1.0  0.6200398067430302  0.3257267577249829  0.20790601823724505  1.0000
  Li  Li3       1.0  0.12003980674303018  0.17427324227501736  0.7079060182372461  1.0000
  Li  Li4       1.0  0.12003980674302996  0.825726757724981  0.20790601823724514  1.0000
  Li  Li5       1.0  0.32513950850285217  0.3196042011795786  0.03468517347489851  1.0000
  Li  Li6       1.0  0.32513950850285167  0.6803957988204216  0.5346851734748992  1.0000
  Li  Li7       1.0  0.8251395085028517  0.8196042011795777  0.03468517347489853  1.0000
  Li  Li8       1.0  0.8251395085028529  0.18039579882042175  0.534685173474899  1.0000
  Li  Li9       1.0  0.5142222771879758  0.1780126887140586  0.37483520940252885  1.0000
  Li  Li10      1.0  0.5142222771879749  0.8219873112859416  0.87483520940253  1.0000
  Li  Li11      1.0  0.014222277187975531  0.6780126887140594  0.3748352094025293  1.0000
  Li  Li12      1.0  0.014222277187975488  0.32198731128594144  0.8748352094025286  1.0000
  Li  Li13      1.0  0.3040868413605835  0.7658922610903387  0.22868451250944058  1.0000
  Li  Li14      1.0  0.30408684136058345  0.23410773890966158  0.7286845125094402  1.0000
  Li  Li15      1.0  0.8040868413605835  0.2658922610903388  0.22868451250944072  1.0000
  Li  Li16      1.0  0.8040868413605841  0.7341077389096606  0.72868451250944  1.0000
  Li  Li17      1.0  0.02033804415717046  0.20824202501653524  0.1885209312015032  1.0000
  Li  Li18      1.0  0.02033804415717045  0.7917579749834656  0.6885209312015035  1.0000
  Li  Li19      1.0  0.520338044157171  0.7082420250165354  0.18852093120150307  1.0000
  Li  Li20      1.0  0.5203380441571709  0.29175797498346523  0.6885209312015036  1.0000
