data_image0
_chemical_formula_structural       Fe12V24O84Li20
_chemical_formula_sum              "Fe12 V24 O84 Li20"
_cell_length_a       13.87553
_cell_length_b       8.376018
_cell_length_c       14.403454999999997
_cell_angle_alpha    90.0
_cell_angle_beta     95.873993
_cell_angle_gamma    90.0

_space_group_name_H-M_alt    "P 1"
_space_group_IT_number       1

loop_
  _space_group_symop_operation_xyz
  'x, y, z'

loop_
  _atom_site_type_symbol
  _atom_site_label
  _atom_site_symmetry_multiplicity
  _atom_site_fract_x
  _atom_site_fract_y
  _atom_site_fract_z
  _atom_site_occupancy
  Fe  Fe1       1.0  0.4963778493477385  0.8013623398311709  0.3748407181759201  1.0000
  Fe  Fe2       1.0  0.49637784934773843  0.1986376601688293  0.8748407181759211  1.0000
  Fe  Fe3       1.0  0.9963778493477387  0.3013623398311712  0.3748407181759201  1.0000
  Fe  Fe4       1.0  0.9963778493477387  0.6986376601688291  0.8748407181759211  1.0000
  Fe  Fe5       1.0  0.8497401671472395  0.8102661073994529  0.534495404456435  1.0000
  Fe  Fe6       1.0  0.8497401671472394  0.1897338926005472  0.034495404456434904  1.0000
  Fe  Fe7       1.0  0.3497401671472397  0.31026610739945304  0.534495404456435  1.0000
  Fe  Fe8       1.0  0.34974016714724004  0.6897338926005471  0.034495404456434904  1.0000
  Fe  Fe9       1.0  0.7179001273306556  0.3192829694908865  0.7080547569994742  1.0000
  Fe  Fe10      1.0  0.7179001273306554  0.6807170305091143  0.2080547569994737  1.0000
  Fe  Fe11      1.0  0.21790012733065586  0.8192829694908856  0.7080547569994742  1.0000
  Fe  Fe12      1.0  0.21790012733065567  0.18071703050911406  0.2080547569994737  1.0000
  V   V1        1.0  0.4393279349862691  0.03235356680991121  0.1728583430998209  1.0000
  V   V2        1.0  0.4393279349862688  0.9676464331900884  0.6728583430998198  1.0000
  V   V3        1.0  0.939327934986269  0.5323535668099106  0.1728583430998209  1.0000
  V   V4        1.0  0.9393279349862692  0.46764643319008875  0.6728583430998198  1.0000
  V   V5        1.0  0.6954098193252369  0.9547385034384859  0.35062756137430795  1.0000
  V   V6        1.0  0.6954098193252369  0.04526149656151492  0.8506275613743067  1.0000
  V   V7        1.0  0.19540981932523693  0.4547385034384854  0.35062756137430795  1.0000
  V   V8        1.0  0.19540981932523696  0.5452614965615152  0.8506275613743067  1.0000
  V   V9        1.0  0.5720275388951648  0.4576613599450435  0.5117985349991877  1.0000
  V   V10       1.0  0.5720275388951648  0.5423386400549567  0.011798534999187576  1.0000
  V   V11       1.0  0.07202753889516499  0.9576613599450433  0.5117985349991877  1.0000
  V   V12       1.0  0.07202753889516499  0.04233864005495671  0.011798534999187576  1.0000
  V   V13       1.0  0.6486257757945681  0.9536875647887482  0.5601160459503183  1.0000
  V   V14       1.0  0.6486257757945681  0.04631243521125188  0.060116045950318206  1.0000
  V   V15       1.0  0.14862577579456682  0.4536875647887479  0.5601160459503183  1.0000
  V   V16       1.0  0.14862577579456673  0.546312435211252  0.060116045950318206  1.0000
  V   V17       1.0  0.2747459251948575  0.959980322166168  0.400680555139655  1.0000
  V   V18       1.0  0.2747459251948573  0.04001967783383233  0.9006805551396541  1.0000
  V   V19       1.0  0.7747459251948576  0.45998032216616797  0.400680555139655  1.0000
  V   V20       1.0  0.7747459251948576  0.5400196778338325  0.9006805551396541  1.0000
  V   V21       1.0  0.40451895083013845  0.4533522588748056  0.23829266880406813  1.0000
  V   V22       1.0  0.40451895083013845  0.5466477411251947  0.7382926688040691  1.0000
  V   V23       1.0  0.9045189508301386  0.9533522588748063  0.23829266880406813  1.0000
  V   V24       1.0  0.9045189508301386  0.04664774112519441  0.7382926688040691  1.0000
  O   O1        1.0  0.47761798370770364  0.3256604030755296  0.4788172359325359  1.0000
  O   O2        1.0  0.47761798370770375  0.6743395969244711  0.9788172359325364  1.0000
  O   O3        1.0  0.9776179837077038  0.8256604030755288  0.4788172359325359  1.0000
  O   O4        1.0  0.9776179837077036  0.17433959692447049  0.9788172359325364  1.0000
  O   O5        1.0  0.34317367874269766  0.1551914048837264  0.14051835890972678  1.0000
  O   O6        1.0  0.3431736787426975  0.8448085951162736  0.6405183589097254  1.0000
  O   O7        1.0  0.8431736787426976  0.6551914048837263  0.14051835890972678  1.0000
  O   O8        1.0  0.8431736787426976  0.34480859511627376  0.6405183589097254  1.0000
  O   O9        1.0  0.24268493962943202  0.9611476030415123  0.28055926407420645  1.0000
  O   O10       1.0  0.24268493962943216  0.03885239695848859  0.7805592640742063  1.0000
  O   O11       1.0  0.7426849396294318  0.4611476030415117  0.28055926407420645  1.0000
  O   O12       1.0  0.7426849396294318  0.5388523969584883  0.7805592640742063  1.0000
  O   O13       1.0  0.39182558858857824  0.4950686355477551  0.11871642508271381  1.0000
  O   O14       1.0  0.3918255885885783  0.504931364452245  0.6187164250827145  1.0000
  O   O15       1.0  0.8918255885885787  0.9950686355477546  0.11871642508271381  1.0000
  O   O16       1.0  0.8918255885885787  0.004931364452245333  0.6187164250827145  1.0000
  O   O17       1.0  0.426975458301616  0.6448033762472466  0.28555234842167354  1.0000
  O   O18       1.0  0.426975458301616  0.35519662375275307  0.7855523484216725  1.0000
  O   O19       1.0  0.9269754583016161  0.14480337624724657  0.28555234842167354  1.0000
  O   O20       1.0  0.9269754583016161  0.8551966237527534  0.7855523484216725  1.0000
  O   O21       1.0  0.30332132146142576  0.14649076510117506  0.4412875656646063  1.0000
  O   O22       1.0  0.30332132146142593  0.8535092348988246  0.9412875656646061  1.0000
  O   O23       1.0  0.8033213214614254  0.6464907651011753  0.4412875656646063  1.0000
  O   O24       1.0  0.8033213214614258  0.35350923489882546  0.9412875656646061  1.0000
  O   O25       1.0  0.5457179474371868  0.8975486726186822  0.6225212188741254  1.0000
  O   O26       1.0  0.5457179474371867  0.1024513273813176  0.12252121887412501  1.0000
  O   O27       1.0  0.04571794743718679  0.3975486726186824  0.6225212188741254  1.0000
  O   O28       1.0  0.045717947437186726  0.6024513273813177  0.12252121887412501  1.0000
  O   O29       1.0  0.6154042090176789  0.7945067321682735  0.2977544196890539  1.0000
  O   O30       1.0  0.6154042090176787  0.20549326783172686  0.7977544196890531  1.0000
  O   O31       1.0  0.11540420901767849  0.2945067321682729  0.2977544196890539  1.0000
  O   O32       1.0  0.11540420901767859  0.7054932678317264  0.7977544196890531  1.0000
  O   O33       1.0  0.5866988540250552  0.9696142949233452  0.43925446032880094  1.0000
  O   O34       1.0  0.5866988540250552  0.03038570507665499  0.9392544603288006  1.0000
  O   O35       1.0  0.08669885402505494  0.4696142949233452  0.43925446032880094  1.0000
  O   O36       1.0  0.08669885402505496  0.5303857050766544  0.9392544603288006  1.0000
  O   O37       1.0  0.6798837393715085  0.13444216736034675  0.301570373898968  1.0000
  O   O38       1.0  0.6798837393715085  0.8655578326396536  0.8015703738989673  1.0000
  O   O39       1.0  0.17988373937150773  0.6344421673603463  0.301570373898968  1.0000
  O   O40       1.0  0.17988373937150762  0.3655578326396532  0.8015703738989673  1.0000
  O   O41       1.0  0.6784806077851244  0.1350111467614627  0.6037809447911453  1.0000
  O   O42       1.0  0.6784806077851246  0.8649888532385374  0.10378094479114525  1.0000
  O   O43       1.0  0.17848060778512465  0.6350111467614625  0.6037809447911453  1.0000
  O   O44       1.0  0.17848060778512476  0.36498885323853714  0.10378094479114525  1.0000
  O   O45       1.0  0.6735956678574948  0.38457261722992475  0.4566242539994902  1.0000
  O   O46       1.0  0.6735956678574948  0.6154273827700757  0.9566242539994896  1.0000
  O   O47       1.0  0.1735956678574948  0.8845726172299242  0.4566242539994902  1.0000
  O   O48       1.0  0.17359566785749483  0.1154273827700758  0.9566242539994896  1.0000
  O   O49       1.0  0.2967119829841421  0.37717345197621394  0.2847302218458317  1.0000
  O   O50       1.0  0.29671198298414186  0.6228265480237855  0.7847302218458313  1.0000
  O   O51       1.0  0.796711982984142  0.8771734519762145  0.2847302218458317  1.0000
  O   O52       1.0  0.7967119829841423  0.12282654802378627  0.7847302218458313  1.0000
  O   O53       1.0  0.5003161835366412  0.3330645750200254  0.26825823849428504  1.0000
  O   O54       1.0  0.5003161835366413  0.6669354249799747  0.7682582384942859  1.0000
  O   O55       1.0  0.0003161835366414873  0.8330645750200252  0.26825823849428504  1.0000
  O   O56       1.0  0.0003161835366416353  0.1669354249799748  0.7682582384942859  1.0000
  O   O57       1.0  0.4549212165202372  0.9995462633906135  0.2926240992725699  1.0000
  O   O58       1.0  0.4549212165202372  0.0004537366093855244  0.7926240992725692  1.0000
  O   O59       1.0  0.954921216520237  0.49954626339061287  0.2926240992725699  1.0000
  O   O60       1.0  0.9549212165202368  0.5004537366093871  0.7926240992725692  1.0000
  O   O61       1.0  0.5435015195573044  0.6454817068040106  0.47133925575407487  1.0000
  O   O62       1.0  0.5435015195573043  0.35451829319598893  0.9713392557540736  1.0000
  O   O63       1.0  0.04350151955730481  0.14548170680401107  0.47133925575407487  1.0000
  O   O64       1.0  0.04350151955730469  0.8545182931959894  0.9713392557540736  1.0000
  O   O65       1.0  0.41410089171633646  0.8422247889244674  0.12864530256858517  1.0000
  O   O66       1.0  0.41410089171633657  0.15777521107553238  0.6286453025685853  1.0000
  O   O67       1.0  0.9141008917163366  0.34222478892446767  0.12864530256858517  1.0000
  O   O68       1.0  0.9141008917163367  0.6577752110755325  0.6286453025685853  1.0000
  O   O69       1.0  0.766385039288856  0.9750555973981371  0.4641869356380166  1.0000
  O   O70       1.0  0.766385039288856  0.02494440260186327  0.9641869356380158  1.0000
  O   O71       1.0  0.26638503928885604  0.4750555973981359  0.4641869356380166  1.0000
  O   O72       1.0  0.26638503928885626  0.5249444026018637  0.9641869356380158  1.0000
  O   O73       1.0  0.6021405660977882  0.45509903822089476  0.6323180028991972  1.0000
  O   O74       1.0  0.6021405660977875  0.5449009617791053  0.1323180028991977  1.0000
  O   O75       1.0  0.10214056609778806  0.9550990382208944  0.6323180028991972  1.0000
  O   O76       1.0  0.10214056609778807  0.04490096177910532  0.1323180028991977  1.0000
  O   O77       1.0  0.36960515328866117  0.8273843886958084  0.43124180548848945  1.0000
  O   O78       1.0  0.3696051532886609  0.1726156113041915  0.931241805488488  1.0000
  O   O79       1.0  0.869605153288661  0.3273843886958083  0.43124180548848945  1.0000
  O   O80       1.0  0.8696051532886608  0.6726156113041915  0.931241805488488  1.0000
  O   O81       1.0  0.7272086189245854  0.8004421495296847  0.6066486158972662  1.0000
  O   O82       1.0  0.7272086189245852  0.19955785047031485  0.10664861589726667  1.0000
  O   O83       1.0  0.22720861892458571  0.3004421495296853  0.6066486158972662  1.0000
  O   O84       1.0  0.2272086189245857  0.6995578504703152  0.10664861589726667  1.0000
  Li  Li1       1.0  0.6185367395448264  0.6766805988673609  0.703363852272165  1.0000
  Li  Li2       1.0  0.6185367395448261  0.3233194011326381  0.20336385227216403  1.0000
  Li  Li3       1.0  0.11853673954482594  0.17668059886736182  0.703363852272165  1.0000
  Li  Li4       1.0  0.11853673954482571  0.823319401132639  0.20336385227216403  1.0000
  Li  Li5       1.0  0.325278582099002  0.3192284068743005  0.03430383689038033  1.0000
  Li  Li6       1.0  0.3252785820990021  0.6807715931256992  0.5343038368903801  1.0000
  Li  Li7       1.0  0.8252785820990023  0.8192284068743007  0.03430383689038033  1.0000
  Li  Li8       1.0  0.8252785820990024  0.18077159312569957  0.5343038368903801  1.0000
  Li  Li9       1.0  0.516463931392127  0.17869433953568575  0.37515333799183886  1.0000
  Li  Li10      1.0  0.516463931392127  0.8213056604643141  0.875153337991839  1.0000
  Li  Li11      1.0  0.016463931392127158  0.6786943395356858  0.37515333799183886  1.0000
  Li  Li12      1.0  0.016463931392127238  0.3213056604643144  0.875153337991839  1.0000
  Li  Li13      1.0  0.29968409500290377  0.7590484724664983  0.23280013195216667  1.0000
  Li  Li14      1.0  0.2996840950029034  0.2409515275335029  0.7328001319521661  1.0000
  Li  Li15      1.0  0.7996840950029033  0.25904847246649665  0.23280013195216667  1.0000
  Li  Li16      1.0  0.7996840950029032  0.7409515275335016  0.7328001319521661  1.0000
  Li  Li17      1.0  0.020273395269224982  0.20736606479028866  0.1890069043689818  1.0000
  Li  Li18      1.0  0.020273395269224885  0.7926339352097108  0.6890069043689813  1.0000
  Li  Li19      1.0  0.5202733952692249  0.7073660647902891  0.1890069043689818  1.0000
  Li  Li20      1.0  0.5202733952692248  0.2926339352097119  0.6890069043689813  1.0000
