data_image0
_chemical_formula_structural       Fe12V24O84Li20
_chemical_formula_sum              "Fe12 V24 O84 Li20"
_cell_length_a       13.875530325317033
_cell_length_b       8.376017367885707
_cell_length_c       14.40345441526532
_cell_angle_alpha    89.70112726283703
_cell_angle_beta     95.87398977295321
_cell_angle_gamma    89.87685037564977

_space_group_name_H-M_alt    "P 1"
_space_group_IT_number       1

loop_
  _space_group_symop_operation_xyz
  'x, y, z'

loop_
  _atom_site_type_symbol
  _atom_site_label
  _atom_site_symmetry_multiplicity
  _atom_site_fract_x
  _atom_site_fract_y
  _atom_site_fract_z
  _atom_site_occupancy
  Fe  Fe1       1.0  0.4971060268918797  0.8034589661305874  0.3763083216572951  1.0000
  Fe  Fe2       1.0  0.4965609930887248  0.19797800459985693  0.8764059060444231  1.0000
  Fe  Fe3       1.0  0.9973203299148399  0.30304490885093366  0.37567204771880247  1.0000
  Fe  Fe4       1.0  0.9987493838094526  0.6982370766944541  0.8751582971806996  1.0000
  Fe  Fe5       1.0  0.8493832094325925  0.8082831794297254  0.5343097005597086  1.0000
  Fe  Fe6       1.0  0.8486720984012748  0.19419210038419416  0.03485485161808007  1.0000
  Fe  Fe7       1.0  0.34942099603434645  0.3087719104449382  0.5353022926310523  1.0000
  Fe  Fe8       1.0  0.34755139740790963  0.69107687813558  0.03569027463643011  1.0000
  Fe  Fe9       1.0  0.7190586589181099  0.32082594618645266  0.7093607329185929  1.0000
  Fe  Fe10      1.0  0.7201019266783175  0.6809291092336937  0.20888072671980978  1.0000
  Fe  Fe11      1.0  0.21834977549724294  0.8171077139428933  0.7120687702900097  1.0000
  Fe  Fe12      1.0  0.2195512289768719  0.17964095302677488  0.20992203889131444  1.0000
  V   V1        1.0  0.43998499412793574  0.032011792098396566  0.17092788227930406  1.0000
  V   V2        1.0  0.44017045795605336  0.9665495943967427  0.6719051991190349  1.0000
  V   V3        1.0  0.9413809939155141  0.5337778299647352  0.17014667829579555  1.0000
  V   V4        1.0  0.939997769671545  0.4668580010182766  0.6712840870259134  1.0000
  V   V5        1.0  0.6962129055120336  0.9509978062490729  0.35146711832480415  1.0000
  V   V6        1.0  0.6959555907205904  0.04976501279898097  0.8520443377297245  1.0000
  V   V7        1.0  0.1962280320353722  0.45030067849190947  0.35238991833995964  1.0000
  V   V8        1.0  0.1916984322660015  0.540044698419058  0.8512789434866467  1.0000
  V   V9        1.0  0.572412066326131  0.45500196734410425  0.5103340761970304  1.0000
  V   V10       1.0  0.5717015299991218  0.544609279114528  0.010422849231214703  1.0000
  V   V11       1.0  0.07236987974755787  0.9558817749348238  0.5111481665237742  1.0000
  V   V12       1.0  0.07122569400291812  0.04441868598892738  0.010692540391436448  1.0000
  V   V13       1.0  0.6498980619275528  0.9546450637668287  0.5594877028550909  1.0000
  V   V14       1.0  0.6501675723873093  0.04606295309831888  0.059482818305637564  1.0000
  V   V15       1.0  0.15000765664433827  0.45443369932245387  0.5597494480767691  1.0000
  V   V16       1.0  0.15357160509459905  0.5427692697239314  0.05779970444762803  1.0000
  V   V17       1.0  0.27530348946926625  0.9588587321082154  0.4018898294851284  1.0000
  V   V18       1.0  0.27426045199617616  0.04229666341788726  0.9011063993136958  1.0000
  V   V19       1.0  0.7751267594104584  0.4584520518909451  0.400793028193777  1.0000
  V   V20       1.0  0.7739329860240967  0.5443014906452236  0.900024657441247  1.0000
  V   V21       1.0  0.40620203872163274  0.4536983523741921  0.2418230900705192  1.0000
  V   V22       1.0  0.4044767516153229  0.5481961063156712  0.7400224616862165  1.0000
  V   V23       1.0  0.9058596547896638  0.9534595148380143  0.2398941555426635  1.0000
  V   V24       1.0  0.9046245306425041  0.04768131874162155  0.7390456587244771  1.0000
  O   O1        1.0  0.47546784674993486  0.33012721515904014  0.4763482038926709  1.0000
  O   O2        1.0  0.47452828156291144  0.6700959107236132  0.9768656280573864  1.0000
  O   O3        1.0  0.9757917565482678  0.8298253776581493  0.47666369057845626  1.0000
  O   O4        1.0  0.97455155240472  0.17144882119001317  0.9764144373616976  1.0000
  O   O5        1.0  0.3420948191077658  0.1534593319223522  0.1398187310995758  1.0000
  O   O6        1.0  0.34189927895106464  0.847649035264439  0.6412257796120732  1.0000
  O   O7        1.0  0.8431827699540743  0.6554751517914018  0.13968048525170837  1.0000
  O   O8        1.0  0.8420899107834092  0.34649174760431184  0.6401068319178126  1.0000
  O   O9        1.0  0.24658369553228246  0.9616772611579227  0.2818125066664761  1.0000
  O   O10       1.0  0.24604107257826305  0.03742900132369841  0.7810837733487006  1.0000
  O   O11       1.0  0.7465738399716019  0.46170542402027565  0.28071472950884885  1.0000
  O   O12       1.0  0.7447790814261298  0.540819726459754  0.7799096787886367  1.0000
  O   O13       1.0  0.39427829332408415  0.492706236794581  0.12293563539271304  1.0000
  O   O14       1.0  0.39218024746776237  0.5078457750093075  0.6207648262146556  1.0000
  O   O15       1.0  0.8926338945847863  0.9938023939917568  0.12100285040210276  1.0000
  O   O16       1.0  0.8923284575144793  0.008234652407890543  0.6201650307290099  1.0000
  O   O17       1.0  0.42702315246593103  0.6465715529081301  0.2881056656704405  1.0000
  O   O18       1.0  0.42767003645861806  0.3543668237690288  0.7872736241409577  1.0000
  O   O19       1.0  0.9278678043680051  0.14552033261438033  0.28694155854216563  1.0000
  O   O20       1.0  0.9256561647477874  0.8553282696047686  0.7864029752473868  1.0000
  O   O21       1.0  0.3015320589408834  0.14531706841424163  0.4442778568079962  1.0000
  O   O22       1.0  0.3011217362996981  0.8563086676713471  0.9446218952681492  1.0000
  O   O23       1.0  0.801387019600494  0.6447427332422763  0.4435090894358727  1.0000
  O   O24       1.0  0.8005559927504158  0.357301233530115  0.9430292571256341  1.0000
  O   O25       1.0  0.5462465298315264  0.8924379488494681  0.6222910288940781  1.0000
  O   O26       1.0  0.5458763771464072  0.1076409983747839  0.12238725256776127  1.0000
  O   O27       1.0  0.046269719255133394  0.3927430142769121  0.6225289245138879  1.0000
  O   O28       1.0  0.04588540922896993  0.6068814692451793  0.12046634989242942  1.0000
  O   O29       1.0  0.6167845171168941  0.7904322695222514  0.2990849399453958  1.0000
  O   O30       1.0  0.6163982975277663  0.21102586026778822  0.7994032063984892  1.0000
  O   O31       1.0  0.11710515732643768  0.289196122461968  0.2998704030778632  1.0000
  O   O32       1.0  0.11328466133415879  0.714162053103897  0.7981420753153625  1.0000
  O   O33       1.0  0.5846619614994049  0.9727448139868966  0.4399246056264032  1.0000
  O   O34       1.0  0.5843633261046864  0.02773682371908409  0.9405218443371935  1.0000
  O   O35       1.0  0.08481971837645151  0.47186858251454694  0.4402873800459867  1.0000
  O   O36       1.0  0.08268615825409809  0.5259505187803611  0.9405829069596382  1.0000
  O   O37       1.0  0.6807089304300636  0.1284897158820747  0.3003869302080758  1.0000
  O   O38       1.0  0.6807668630277816  0.8726921543237468  0.8016268060549282  1.0000
  O   O39       1.0  0.1802034902723187  0.6277334625696112  0.3015200967578924  1.0000
  O   O40       1.0  0.18137847101816276  0.3616163206892439  0.7992128590810399  1.0000
  O   O41       1.0  0.6791203569782381  0.133655371917524  0.6051806358769979  1.0000
  O   O42       1.0  0.6791367655581435  0.8663970700863827  0.10570799122764934  1.0000
  O   O43       1.0  0.17894019879009293  0.6338394806271614  0.6049139662076572  1.0000
  O   O44       1.0  0.17689483345024146  0.3644561107684727  0.10807334179399089  1.0000
  O   O45       1.0  0.6723455374856705  0.37798955844946913  0.4531465514321996  1.0000
  O   O46       1.0  0.6704686899505294  0.623019856024545  0.9521197070991352  1.0000
  O   O47       1.0  0.1724642743430658  0.8788397318134434  0.45386356023173474  1.0000
  O   O48       1.0  0.1710050867932081  0.1205208462816817  0.95331105519505  1.0000
  O   O49       1.0  0.2985784833987849  0.37205533006966834  0.2863850103812071  1.0000
  O   O50       1.0  0.298718238441267  0.6276530978919612  0.7841278576272459  1.0000
  O   O51       1.0  0.7984804591639294  0.8727662026455022  0.28561773698846876  1.0000
  O   O52       1.0  0.7975700128773527  0.12839317850313975  0.7855079783777336  1.0000
  O   O53       1.0  0.5045791093738996  0.337812748157823  0.26899137281588964  1.0000
  O   O54       1.0  0.5021265260386248  0.6659797919938618  0.7666289583567771  1.0000
  O   O55       1.0  0.0035715017489004386  0.835814524688167  0.2665264199716109  1.0000
  O   O56       1.0  0.0020335522021848185  0.1641690256012408  0.7672186646154487  1.0000
  O   O57       1.0  0.45731379823708923  0.0037371122742225183  0.2903540867531525  1.0000
  O   O58       1.0  0.4576454861622822  0.9968152480358862  0.7909194091221308  1.0000
  O   O59       1.0  0.9587146426066274  0.5036243385666757  0.2897670046561087  1.0000
  O   O60       1.0  0.9563869928361429  0.49564773775580145  0.7902376867522437  1.0000
  O   O61       1.0  0.5458263684980004  0.6451070452482257  0.4718871289415078  1.0000
  O   O62       1.0  0.5446674239222291  0.3550117133547297  0.9721222209303672  1.0000
  O   O63       1.0  0.04504669008508661  0.14539033159692974  0.4719260165724693  1.0000
  O   O64       1.0  0.04326039706993742  0.8559105531471406  0.9718563642827872  1.0000
  O   O65       1.0  0.4164039618742918  0.8409535000283007  0.12720248384867655  1.0000
  O   O66       1.0  0.41662589214405954  0.1587045365847862  0.627584709198433  1.0000
  O   O67       1.0  0.9158009731285451  0.34181011662724103  0.12711138965148466  1.0000
  O   O68       1.0  0.9161715153417178  0.6588502909038386  0.6271672212355732  1.0000
  O   O69       1.0  0.7667128054616711  0.9761783396201081  0.465408309278562  1.0000
  O   O70       1.0  0.766566455393934  0.025700832580458372  0.9662629629658157  1.0000
  O   O71       1.0  0.26686200090113354  0.47656973476393544  0.46593685438184435  1.0000
  O   O72       1.0  0.2645810999111275  0.5238008679094529  0.9722741913683994  1.0000
  O   O73       1.0  0.6032562745221983  0.4511403346397237  0.6307971249357112  1.0000
  O   O74       1.0  0.6042905536664784  0.5483203633881831  0.1306665921541632  1.0000
  O   O75       1.0  0.10358340167546176  0.9522817121732736  0.6312480546419154  1.0000
  O   O76       1.0  0.10332691403624447  0.04722605307961349  0.13093515831629626  1.0000
  O   O77       1.0  0.3718677286147356  0.8299387678452226  0.43444016788915985  1.0000
  O   O78       1.0  0.37106185339060266  0.17015424749106792  0.9331152012337767  1.0000
  O   O79       1.0  0.8716099908562442  0.3295458528937549  0.433121160406684  1.0000
  O   O80       1.0  0.8703855833418889  0.6716768914680022  0.9314848892550579  1.0000
  O   O81       1.0  0.7277758113266867  0.7988830817429576  0.6076770344122937  1.0000
  O   O82       1.0  0.7272122991427733  0.20172745574405815  0.10781823938231759  1.0000
  O   O83       1.0  0.22799546043942714  0.29874669378433055  0.607715062696599  1.0000
  O   O84       1.0  0.22682970270272693  0.7009540114701425  0.1104461439461711  1.0000
  Li  Li1       1.0  0.611916971372735  0.6800784200829921  0.6869221321722458  1.0000
  Li  Li2       1.0  0.6123903831374087  0.31723563739976796  0.18724200881958405  1.0000
  Li  Li3       1.0  0.11538411483785294  0.18522783349449704  0.6928759056530635  1.0000
  Li  Li4       1.0  0.11131467608022942  0.813996358549494  0.18405572154023195  1.0000
  Li  Li5       1.0  0.3292835665236628  0.32016851275638886  0.03573028236389941  1.0000
  Li  Li6       1.0  0.32441821408517185  0.6821545259923887  0.5372792209976351  1.0000
  Li  Li7       1.0  0.8278782055900542  0.8197444050239105  0.03513227683433122  1.0000
  Li  Li8       1.0  0.8247918861326546  0.1818501647272511  0.5356740341206269  1.0000
  Li  Li9       1.0  0.5247116531478185  0.18048143221593252  0.37379583747676615  1.0000
  Li  Li10      1.0  0.524589447867893  0.8186891597894086  0.8734233077633679  1.0000
  Li  Li11      1.0  0.025345836271463643  0.6810008129829392  0.3732021740339439  1.0000
  Li  Li12      1.0  0.021361946228471314  0.3186133790721182  0.8741405706289871  1.0000
  Li  Li13      1.0  0.29336679795319814  0.7509301053252658  0.23835200032617856  1.0000
  Li  Li14      1.0  0.02228606496722133  0.2073822885362636  0.1900846176520606  1.0000
  Li  Li15      1.0  0.7956295473448991  0.25293645514102503  0.2359509431290236  1.0000
  Li  Li16      1.0  0.5207526147548817  0.29504184503187586  0.6908627663537078  1.0000
  Li  Li17      1.0  0.02153339268144838  0.7938538464702449  0.6905782836819192  1.0000
  Li  Li18      1.0  0.7941988988026728  0.7503448560402529  0.7364678653882031  1.0000
  Li  Li19      1.0  0.521754954401613  0.7046813068943655  0.1904960027494376  1.0000
  Li  Li20      1.0  0.29522063927650194  0.24899273279391168  0.7371194616556966  1.0000
