data_image0
_chemical_formula_structural       Li4Zr8P12O48
_chemical_formula_sum              "Li4 Zr8 P12 O48"
_cell_length_a       8.954078213258652
_cell_length_b       9.114667017629698
_cell_length_c       12.612294497164042
_cell_angle_alpha    90.0
_cell_angle_beta     90.4142505433722
_cell_angle_gamma    90.0

_space_group_name_H-M_alt    "P 1"
_space_group_IT_number       1

loop_
  _space_group_symop_operation_xyz
  'x, y, z'

loop_
  _atom_site_type_symbol
  _atom_site_label
  _atom_site_symmetry_multiplicity
  _atom_site_fract_x
  _atom_site_fract_y
  _atom_site_fract_z
  _atom_site_occupancy
  Li  Li1       1.0  0.21278259236047883  0.7250762719833711  0.1785694241436921  1.0000
  Li  Li2       1.0  0.7127825923604791  0.7749237280166288  0.6785694241436924  1.0000
  Li  Li3       1.0  0.7872174076395213  0.2749237280166294  0.8214305758563084  1.0000
  Li  Li4       1.0  0.2872174076395209  0.22507627198337035  0.3214305758563086  1.0000
  Zr  Zr1       1.0  0.7476300741116576  0.9538178123777564  0.8910272076982272  1.0000
  Zr  Zr2       1.0  0.24763007411165808  0.5461821876222425  0.39102720769822685  1.0000
  Zr  Zr3       1.0  0.2523699258883421  0.04618218762224239  0.10897279230177327  1.0000
  Zr  Zr4       1.0  0.7523699258883433  0.453817812377758  0.6089727923017738  1.0000
  Zr  Zr5       1.0  0.7499435462571192  0.5274171963165962  0.11999529415699668  1.0000
  Zr  Zr6       1.0  0.24994354625711926  0.9725828036834048  0.6199952941569972  1.0000
  Zr  Zr7       1.0  0.25005645374288094  0.4725828036834041  0.8800047058430033  1.0000
  Zr  Zr8       1.0  0.750056453742881  0.027417196316595824  0.3800047058430034  1.0000
  P   P1        1.0  0.8842020328517921  0.5973407304484528  0.8535452327589093  1.0000
  P   P2        1.0  0.3842020328517921  0.9026592695515491  0.35354523275890953  1.0000
  P   P3        1.0  0.11579796714820773  0.4026592695515474  0.14645476724109088  1.0000
  P   P4        1.0  0.6157979671482084  0.09734073044845235  0.6464547672410916  1.0000
  P   P5        1.0  0.901667098108549  0.8793983536025247  0.14722603730787645  1.0000
  P   P6        1.0  0.4016670981085476  0.6206016463974747  0.6472260373078768  1.0000
  P   P7        1.0  0.09833290189145258  0.12060164639747552  0.8527739626921242  1.0000
  P   P8        1.0  0.5983329018914527  0.37939835360252466  0.3527739626921232  1.0000
  P   P9        1.0  0.4625990731558571  0.7499975973089394  0.010287402949199293  1.0000
  P   P10       1.0  0.962599073155856  0.7500024026910601  0.5102874029492003  1.0000
  P   P11       1.0  0.5374009268441433  0.2500024026910599  0.9897125970508011  1.0000
  P   P12       1.0  0.03740092684414364  0.24999759730894  0.4897125970508011  1.0000
  O   O1        1.0  0.8477676343261552  0.9236907908989658  0.03448789057555433  1.0000
  O   O2        1.0  0.34776763432615526  0.5763092091010324  0.5344878905755542  1.0000
  O   O3        1.0  0.15223236567384535  0.07630920910103245  0.9655121094244455  1.0000
  O   O4        1.0  0.6522323656738461  0.4236907908989676  0.46551210942444643  1.0000
  O   O5        1.0  0.8231018022375909  0.7523432169276225  0.8211057372131396  1.0000
  O   O6        1.0  0.32310180223759133  0.747656783072376  0.321105737213138  1.0000
  O   O7        1.0  0.17689819776240903  0.2476567830723765  0.17889426278686185  1.0000
  O   O8        1.0  0.6768981977624092  0.252343216927623  0.6788942627868612  1.0000
  O   O9        1.0  0.5545957707130368  0.8569137279471648  0.9414088685787766  1.0000
  O   O10       1.0  0.05459577071303614  0.6430862720528348  0.4414088685787761  1.0000
  O   O11       1.0  0.4454042292869638  0.14308627205283508  0.058591131421224116  1.0000
  O   O12       1.0  0.945404229286962  0.3569137279471652  0.5585911314212246  1.0000
  O   O13       1.0  0.9258211884188768  0.10069329973674597  0.8466933191999192  1.0000
  O   O14       1.0  0.42582118841887573  0.3993067002632538  0.3466933191999175  1.0000
  O   O15       1.0  0.07417881158112417  0.8993067002632544  0.1533066808000823  1.0000
  O   O16       1.0  0.5741788115811255  0.6006932997367457  0.6533066808000815  1.0000
  O   O17       1.0  0.6776929739827048  0.9816042866757021  0.7271684776941213  1.0000
  O   O18       1.0  0.17769297398270492  0.5183957133242996  0.22716847769412088  1.0000
  O   O19       1.0  0.3223070260172951  0.018395713324299064  0.2728315223058794  1.0000
  O   O20       1.0  0.8223070260172952  0.4816042866757006  0.7728315223058788  1.0000
  O   O21       1.0  0.6488989365290275  0.16108711957310984  0.9201363768313925  1.0000
  O   O22       1.0  0.14889893652902714  0.33891288042689033  0.42013637683139293  1.0000
  O   O23       1.0  0.35110106347097303  0.8389128804268897  0.07986362316860725  1.0000
  O   O24       1.0  0.8511010634709738  0.66108711957311  0.5798636231686076  1.0000
  O   O25       1.0  0.8259644690668707  0.5574174447296608  0.963591848116429  1.0000
  O   O26       1.0  0.32596446906687015  0.9425825552703391  0.4635918481164278  1.0000
  O   O27       1.0  0.1740355309331298  0.4425825552703389  0.036408151883572326  1.0000
  O   O28       1.0  0.6740355309331302  0.05741744472966132  0.5364081518835728  1.0000
  O   O29       1.0  0.8668139743644351  0.7167696210255841  0.16712617983303274  1.0000
  O   O30       1.0  0.366813974364434  0.7832303789744154  0.6671261798330334  1.0000
  O   O31       1.0  0.13318602563556625  0.28323037897441583  0.8328738201669661  1.0000
  O   O32       1.0  0.633186025635566  0.21676962102558378  0.33287382016696704  1.0000
  O   O33       1.0  0.564945078629979  0.662234998187526  0.08475169074301667  1.0000
  O   O34       1.0  0.06494507862997906  0.8377650018124729  0.5847516907430168  1.0000
  O   O35       1.0  0.43505492137002133  0.33776500181247315  0.9152483092569845  1.0000
  O   O36       1.0  0.9350549213700211  0.16223499818752668  0.41524830925698325  1.0000
  O   O37       1.0  0.9447460005932345  0.4027672879009628  0.14962328916596362  1.0000
  O   O38       1.0  0.4447460005932346  0.09723271209903732  0.6496232891659641  1.0000
  O   O39       1.0  0.05525399940676582  0.5972327120990374  0.8503767108340373  1.0000
  O   O40       1.0  0.5552539994067653  0.9027672879009644  0.35037671083403676  1.0000
  O   O41       1.0  0.6741362968082688  0.4791107658862605  0.2713499219417976  1.0000
  O   O42       1.0  0.1741362968082687  0.02088923411373917  0.7713499219417975  1.0000
  O   O43       1.0  0.32586370319173175  0.5208892341137387  0.7286500780582038  1.0000
  O   O44       1.0  0.8258637031917325  0.9791107658862613  0.22865007805820275  1.0000
  O   O45       1.0  0.6288317364350658  0.3493647666128416  0.06334918917107753  1.0000
  O   O46       1.0  0.12883173643506565  0.15063523338715826  0.5633491891710782  1.0000
  O   O47       1.0  0.3711682635649347  0.6506352333871579  0.9366508108289222  1.0000
  O   O48       1.0  0.8711682635649348  0.8493647666128415  0.4366508108289223  1.0000
