data_image0
_chemical_formula_structural       Li4Zr8P12O48
_chemical_formula_sum              "Li4 Zr8 P12 O48"
_cell_length_a       8.954009287400515
_cell_length_b       9.114771709938523
_cell_length_c       12.613607343639703
_cell_angle_alpha    90.0
_cell_angle_beta     90.39714031958772
_cell_angle_gamma    90.0

_space_group_name_H-M_alt    "P 1"
_space_group_IT_number       1

loop_
  _space_group_symop_operation_xyz
  'x, y, z'

loop_
  _atom_site_type_symbol
  _atom_site_label
  _atom_site_symmetry_multiplicity
  _atom_site_fract_x
  _atom_site_fract_y
  _atom_site_fract_z
  _atom_site_occupancy
  Li  Li1       1.0  0.2127495210562258  0.7251025953189945  0.17852176259901179  1.0000
  Li  Li2       1.0  0.7127495210562262  0.7748974046810068  0.6785217625990124  1.0000
  Li  Li3       1.0  0.7872504789437744  0.2748974046810065  0.8214782374009901  1.0000
  Li  Li4       1.0  0.2872504789437749  0.22510259531899418  0.3214782374009888  1.0000
  Zr  Zr1       1.0  0.7476998888984219  0.9537462057564238  0.8910511989759182  1.0000
  Zr  Zr2       1.0  0.24769988889842218  0.5462537942435773  0.391051198975918  1.0000
  Zr  Zr3       1.0  0.2523001111015777  0.04625379424357659  0.1089488010240827  1.0000
  Zr  Zr4       1.0  0.7523001111015774  0.4537462057564227  0.6089488010240833  1.0000
  Zr  Zr5       1.0  0.7499733022047552  0.5273016537987985  0.1199395388809924  1.0000
  Zr  Zr6       1.0  0.24997330220475447  0.9726983462012027  0.6199395388809933  1.0000
  Zr  Zr7       1.0  0.25002669779524567  0.4726983462012022  0.8800604611190084  1.0000
  Zr  Zr8       1.0  0.7500266977952461  0.027301653798798276  0.38006046111900826  1.0000
  P   P1        1.0  0.8841612089181681  0.5972929888541617  0.8535075632087264  1.0000
  P   P2        1.0  0.3841612089181661  0.9027070111458373  0.3535075632087252  1.0000
  P   P3        1.0  0.11583879108183337  0.4027070111458384  0.14649243679127558  1.0000
  P   P4        1.0  0.6158387910818337  0.09729298885416193  0.6464924367912765  1.0000
  P   P5        1.0  0.9016757834107537  0.8793413677986535  0.14718079387939073  1.0000
  P   P6        1.0  0.4016757834107533  0.6206586322013468  0.6471807938793919  1.0000
  P   P7        1.0  0.09832421658924734  0.12065863220134712  0.8528192061206106  1.0000
  P   P8        1.0  0.5983242165892476  0.3793413677986531  0.35281920612060946  1.0000
  P   P9        1.0  0.4626763292137122  0.7499832771672459  0.010348256005471774  1.0000
  P   P10       1.0  0.9626763292137118  0.7500167228327541  0.5103482560054726  1.0000
  P   P11       1.0  0.5373236707862882  0.2500167228327539  0.9896517439945303  1.0000
  P   P12       1.0  0.037323670786288746  0.24998327716724641  0.4896517439945287  1.0000
  O   O1        1.0  0.8477787522940483  0.9236255555259456  0.034468143664990174  1.0000
  O   O2        1.0  0.34777875229404803  0.5763744444740564  0.5344681436649907  1.0000
  O   O3        1.0  0.1522212477059522  0.07637444447405538  0.9655318563350109  1.0000
  O   O4        1.0  0.6522212477059529  0.42362555552594466  0.4655318563350108  1.0000
  O   O5        1.0  0.8230521323512513  0.7523106394370607  0.8211165445806727  1.0000
  O   O6        1.0  0.32305213235125063  0.7476893605629396  0.32111654458067007  1.0000
  O   O7        1.0  0.17694786764874962  0.24768936056293958  0.1788834554193301  1.0000
  O   O8        1.0  0.6769478676487493  0.25231063943706084  0.6788834554193305  1.0000
  O   O9        1.0  0.5546142624902695  0.8570234587440312  0.9415175511446124  1.0000
  O   O10       1.0  0.054614262490270404  0.6429765412559688  0.441517551144612  1.0000
  O   O11       1.0  0.44538573750972993  0.1429765412559687  0.05848244885538863  1.0000
  O   O12       1.0  0.9453857375097298  0.3570234587440318  0.5584824488553894  1.0000
  O   O13       1.0  0.9258066336719221  0.1006974418145905  0.846772923513928  1.0000
  O   O14       1.0  0.4258066336719211  0.3993025581854099  0.3467729235139262  1.0000
  O   O15       1.0  0.07419336632807884  0.8993025581854096  0.1532270764860745  1.0000
  O   O16       1.0  0.5741933663280786  0.6006974418145907  0.6532270764860754  1.0000
  O   O17       1.0  0.6777050876035409  0.9815674371464196  0.7271741670565404  1.0000
  O   O18       1.0  0.17770508760353987  0.518432562853581  0.22717416705653903  1.0000
  O   O19       1.0  0.3222949123964605  0.0184325628535811  0.2728258329434616  1.0000
  O   O20       1.0  0.8222949123964597  0.48156743714641903  0.7728258329434623  1.0000
  O   O21       1.0  0.6489376670670474  0.16117254748591558  0.9201292066074945  1.0000
  O   O22       1.0  0.14893766706704709  0.33882745251408447  0.42012920660749403  1.0000
  O   O23       1.0  0.3510623329329533  0.8388274525140852  0.0798707933925063  1.0000
  O   O24       1.0  0.8510623329329536  0.6611725474859161  0.579870793392507  1.0000
  O   O25       1.0  0.8258789733041055  0.5574063111159971  0.9635580474177236  1.0000
  O   O26       1.0  0.3258789733041059  0.9425936888840037  0.4635580474177226  1.0000
  O   O27       1.0  0.17412102669589483  0.4425936888840031  0.03644195258227807  1.0000
  O   O28       1.0  0.6741210266958947  0.057406311115997255  0.5364419525822791  1.0000
  O   O29       1.0  0.8668160403356411  0.7167063955494483  0.16706915466682182  1.0000
  O   O30       1.0  0.36681604033564064  0.7832936044505519  0.6670691546668236  1.0000
  O   O31       1.0  0.13318395966435978  0.2832936044505523  0.8329308453331788  1.0000
  O   O32       1.0  0.6331839596643603  0.2167063955494481  0.3329308453331786  1.0000
  O   O33       1.0  0.5649453582285203  0.6622837220264709  0.08486939898494447  1.0000
  O   O34       1.0  0.0649453582285201  0.8377162779735298  0.5848693989849453  1.0000
  O   O35       1.0  0.43505464177148007  0.33771627797353015  0.9151306010150565  1.0000
  O   O36       1.0  0.9350546417714805  0.1622837220264706  0.4151306010150564  1.0000
  O   O37       1.0  0.944770175864362  0.40278934254451215  0.1495887194607746  1.0000
  O   O38       1.0  0.4447701758643614  0.09721065745548803  0.6495887194607757  1.0000
  O   O39       1.0  0.055229824135638886  0.5972106574554881  0.8504112805392262  1.0000
  O   O40       1.0  0.5552298241356397  0.9027893425445132  0.3504112805392259  1.0000
  O   O41       1.0  0.6742088667369572  0.47896063020113083  0.2713793199207478  1.0000
  O   O42       1.0  0.1742088667369566  0.02103936979886875  0.7713793199207485  1.0000
  O   O43       1.0  0.32579113326304376  0.5210393697988691  0.7286206800792537  1.0000
  O   O44       1.0  0.8257911332630437  0.9789606302011322  0.2286206800792529  1.0000
  O   O45       1.0  0.6286408515451507  0.34942260321096913  0.0633358386868371  1.0000
  O   O46       1.0  0.12864085154515098  0.15057739678903115  0.5633358386868378  1.0000
  O   O47       1.0  0.37135914845484935  0.6505773967890305  0.9366641613131639  1.0000
  O   O48       1.0  0.8713591484548495  0.8494226032109701  0.4366641613131637  1.0000
