data_image0
_chemical_formula_structural       Li4Zr8P12O48
_chemical_formula_sum              "Li4 Zr8 P12 O48"
_cell_length_a       8.81277
_cell_length_b       8.945199999999998
_cell_length_c       12.375000000000002
_cell_angle_alpha    90.0
_cell_angle_beta     90.80100000000002
_cell_angle_gamma    90.0

_space_group_name_H-M_alt    "P 1"
_space_group_IT_number       1

loop_
  _space_group_symop_operation_xyz
  'x, y, z'

loop_
  _atom_site_type_symbol
  _atom_site_label
  _atom_site_symmetry_multiplicity
  _atom_site_fract_x
  _atom_site_fract_y
  _atom_site_fract_z
  _atom_site_occupancy
  Li  Li1       1.0  0.20106628197955234  0.7232435010300409  0.17654916389709677  1.0000
  Li  Li2       1.0  0.701066281979552  0.7767564989699595  0.6765491638970966  1.0000
  Li  Li3       1.0  0.7989337180204479  0.2767564989699588  0.8234508361029034  1.0000
  Li  Li4       1.0  0.298933718020448  0.22324350103004123  0.32345083610290365  1.0000
  Zr  Zr1       1.0  0.7455878741298252  0.9536697528782867  0.8897154940828804  1.0000
  Zr  Zr2       1.0  0.245587874129825  0.5463302471217126  0.38971549408287925  1.0000
  Zr  Zr3       1.0  0.2544121258701749  0.046330247121712846  0.11028450591712041  1.0000
  Zr  Zr4       1.0  0.7544121258701748  0.4536697528782874  0.6102845059171208  1.0000
  Zr  Zr5       1.0  0.7505088046997088  0.5293721585871938  0.12278415645101659  1.0000
  Zr  Zr6       1.0  0.2505088046997094  0.9706278414128064  0.6227841564510167  1.0000
  Zr  Zr7       1.0  0.24949119530029082  0.4706278414128062  0.8772158435489835  1.0000
  Zr  Zr8       1.0  0.7494911953002914  0.029372158587193588  0.37721584354898313  1.0000
  P   P1        1.0  0.8889974520046054  0.6030834543941971  0.8539587414402368  1.0000
  P   P2        1.0  0.3889974520046063  0.896916545605804  0.35395874144023637  1.0000
  P   P3        1.0  0.11100254799539382  0.3969165456058042  0.14604125855976371  1.0000
  P   P4        1.0  0.6110025479953947  0.10308345439419607  0.6460412585597639  1.0000
  P   P5        1.0  0.9029731319586533  0.8792929007589311  0.14866234937310485  1.0000
  P   P6        1.0  0.4029731319586535  0.6207070992410695  0.6486623493731045  1.0000
  P   P7        1.0  0.0970268680413467  0.12070709924106907  0.8513376506268956  1.0000
  P   P8        1.0  0.5970268680413467  0.3792929007589311  0.35133765062689465  1.0000
  P   P9        1.0  0.4622930709023741  0.7505511517325458  0.010626569671495547  1.0000
  P   P10       1.0  0.9622930709023739  0.7494488482674548  0.5106265696714958  1.0000
  P   P11       1.0  0.5377069290976261  0.24944884826745375  0.9893734303285056  1.0000
  P   P12       1.0  0.03770692909762604  0.2505511517325463  0.48937343032850417  1.0000
  O   O1        1.0  0.8586215147328264  0.9100067103942737  0.02937521227341565  1.0000
  O   O2        1.0  0.35862151473282544  0.5899932896057293  0.5293752122734159  1.0000
  O   O3        1.0  0.14137848526717395  0.08999328960572787  0.9706247877265853  1.0000
  O   O4        1.0  0.6413784852671736  0.4100067103942724  0.470624787726584  1.0000
  O   O5        1.0  0.8205320929641385  0.7545315772334736  0.8146849620619624  1.0000
  O   O6        1.0  0.32053209296413887  0.7454684227665265  0.31468496206196245  1.0000
  O   O7        1.0  0.17946790703586113  0.24546842276652697  0.18531503793803747  1.0000
  O   O8        1.0  0.6794679070358612  0.254531577233473  0.6853150379380376  1.0000
  O   O9        1.0  0.5465010649148792  0.8671424761778196  0.94185063060161  1.0000
  O   O10       1.0  0.046501064914878806  0.6328575238221803  0.441850630601607  1.0000
  O   O11       1.0  0.4534989350851213  0.1328575238221808  0.058149369398392214  1.0000
  O   O12       1.0  0.9534989350851194  0.36714247617781925  0.558149369398393  1.0000
  O   O13       1.0  0.9251405261819391  0.09177813665676239  0.8357326436188008  1.0000
  O   O14       1.0  0.4251405261819393  0.40822186334323773  0.3357326436188022  1.0000
  O   O15       1.0  0.07485947381806038  0.9082218633432387  0.1642673563811978  1.0000
  O   O16       1.0  0.5748594738180606  0.5917781366567623  0.6642673563811992  1.0000
  O   O17       1.0  0.6603790232464519  0.979619738842888  0.7275381372716612  1.0000
  O   O18       1.0  0.16037902324645156  0.5203802611571144  0.22753813727165917  1.0000
  O   O19       1.0  0.3396209767535479  0.020380261157113826  0.2724618627283408  1.0000
  O   O20       1.0  0.839620976753548  0.47961973884288556  0.772461862728339  1.0000
  O   O21       1.0  0.6666827311097937  0.1708440586626286  0.9269368942278734  1.0000
  O   O22       1.0  0.16668273110979276  0.3291559413373709  0.426936894227873  1.0000
  O   O23       1.0  0.33331726889020724  0.829155941337371  0.0730631057721271  1.0000
  O   O24       1.0  0.8333172688902064  0.6708440586626291  0.5730631057721269  1.0000
  O   O25       1.0  0.8235097201606147  0.5628569277691075  0.9640288720153236  1.0000
  O   O26       1.0  0.3235097201606145  0.9371430722308921  0.4640288720153233  1.0000
  O   O27       1.0  0.1764902798393861  0.43714307223089116  0.03597112798467643  1.0000
  O   O28       1.0  0.6764902798393853  0.06285692776910863  0.5359711279846766  1.0000
  O   O29       1.0  0.8767779551846465  0.7141049070853753  0.17573707661916876  1.0000
  O   O30       1.0  0.3767779551846457  0.7858950929146248  0.6757370766191686  1.0000
  O   O31       1.0  0.12322204481535384  0.2858950929146248  0.8242629233808314  1.0000
  O   O32       1.0  0.6232220448153535  0.2141049070853755  0.3242629233808313  1.0000
  O   O33       1.0  0.5703038264388337  0.6785973905066239  0.09326235142027868  1.0000
  O   O34       1.0  0.07030382643883346  0.8214026094933764  0.5932623514202787  1.0000
  O   O35       1.0  0.42969617356116574  0.32140260949337535  0.9067376485797224  1.0000
  O   O36       1.0  0.9296961735611686  0.178597390506624  0.4067376485797213  1.0000
  O   O37       1.0  0.9377931541921977  0.3852908166296437  0.1416545475740214  1.0000
  O   O38       1.0  0.4377931541921957  0.1147091833703562  0.6416545475740218  1.0000
  O   O39       1.0  0.062206845807804126  0.6147091833703568  0.8583454524259789  1.0000
  O   O40       1.0  0.5622068458078046  0.8852908166296433  0.3583454524259782  1.0000
  O   O41       1.0  0.687958031793409  0.4846010252780005  0.27974424949169313  1.0000
  O   O42       1.0  0.18795803179340925  0.01539897472199935  0.7797442494916931  1.0000
  O   O43       1.0  0.3120419682065907  0.5153989747219995  0.7202557505083069  1.0000
  O   O44       1.0  0.812041968206591  0.9846010252779999  0.22025575050830687  1.0000
  O   O45       1.0  0.6085493056426174  0.36344141696520055  0.06679314869457464  1.0000
  O   O46       1.0  0.10854930564261725  0.13655858303479948  0.5667931486945745  1.0000
  O   O47       1.0  0.39145069435738267  0.6365585830347998  0.9332068513054252  1.0000
  O   O48       1.0  0.8914506943573826  0.8634414169652  0.4332068513054255  1.0000
