 INFO
nunit      1    1    1
unit   cell
celltype   primcell
shape   parapipedal
 END_INFO
 DIM-GROUP
           3           1
 PRIMVEC
    0.0000000000   -6.5029999780    0.0000000000
   -6.9923832410    0.0000000000    0.4031794960
    0.0000000000    0.0000000000  -12.9959983410
 CONVVEC
    0.0000000000   -6.5029999780    0.0000000000
   -6.9923832410    0.0000000000    0.4031794960
    0.0000000000    0.0000000000  -12.9959983410
 PRIMCOORD
          24           1
  3     -5.9026695970    -3.1454540340    -1.3995307000    -0.0007592700     0.0000531900     0.0007883900
  3     -1.0897136440    -6.3969540230    -4.6952889750     0.0007592700     0.0000531900    -0.0007883900
  3     -1.0897136440    -3.3575459430   -11.1932881450     0.0007592700    -0.0000531900    -0.0007883900
  3     -5.9026695970    -0.1060459550    -7.8975298710    -0.0007592700    -0.0000531900     0.0007883900
 13     -2.0567859730    -5.3482827580    -7.6872376830     0.0001276900    -0.0004551700     0.0000873200
 13     -4.9355972680    -2.0967827690   -11.4035803330    -0.0001276900    -0.0004551700    -0.0000873200
 13     -4.9355972680    -1.1547172200    -4.9055811630    -0.0001276900     0.0004551700    -0.0000873200
 13     -2.0567859730    -4.4062172090    -1.1892385120     0.0001276900     0.0004551700     0.0000873200
 17     -2.1407067220    -4.4360600600    -5.7418036600    -0.0002189900    -0.0003241500    -0.0005313400
 17     -4.8516765190    -1.1845600710    -0.3530160160     0.0002189900    -0.0003241500     0.0005313400
 17     -4.8516765190    -2.0669399180    -6.8510151860     0.0002189900     0.0003241500     0.0005313400
 17     -2.1407067220    -5.3184399070   -12.2398028300    -0.0002189900     0.0003241500    -0.0005313400
 17     -1.3166710810    -0.8569481940    -7.3408682760    -0.0001751500     0.0006640800     0.0000815800
 17     -5.6757121600    -4.1084481830   -11.7499497410     0.0001751500     0.0006640800    -0.0000815800
 17     -5.6757121600    -5.6460517840    -5.2519505700     0.0001751500    -0.0006640800    -0.0000815800
 17     -1.3166710810    -2.3945517950    -0.8428691050    -0.0001751500    -0.0006640800     0.0000815800
 17     -0.5026570150    -4.4241103260    -8.9023163680    -0.0000705500    -0.0003723100     0.0001286200
 17     -6.4897262260    -1.1726103370   -10.1885016490     0.0000705500    -0.0003723100    -0.0001286200
 17     -6.4897262260    -2.0788896520    -3.6905024780     0.0000705500     0.0003723100    -0.0001286200
 17     -0.5026570150    -5.3303896400    -2.4043171970    -0.0000705500     0.0003723100     0.0001286200
 17     -3.9388902620    -5.2926593470    -8.7132068910     0.0002646200    -0.0004866100     0.0006637800
 17     -3.0534929790    -2.0411593580   -10.3776111250    -0.0002646200    -0.0004866100    -0.0006637800
 17     -3.0534929790    -1.2103406310    -3.8796119550    -0.0002646200     0.0004866100    -0.0006637800
 17     -3.9388902620    -4.4618406190    -2.2152077200     0.0002646200     0.0004866100     0.0006637800
 CONVCOORD
          24           1
  3     -5.9026695970    -3.1454540340    -1.3995307000
  3     -1.0897136440    -6.3969540230    -4.6952889750
  3     -1.0897136440    -3.3575459430   -11.1932881450
  3     -5.9026695970    -0.1060459550    -7.8975298710
 13     -2.0567859730    -5.3482827580    -7.6872376830
 13     -4.9355972680    -2.0967827690   -11.4035803330
 13     -4.9355972680    -1.1547172200    -4.9055811630
 13     -2.0567859730    -4.4062172090    -1.1892385120
 17     -2.1407067220    -4.4360600600    -5.7418036600
 17     -4.8516765190    -1.1845600710    -0.3530160160
 17     -4.8516765190    -2.0669399180    -6.8510151860
 17     -2.1407067220    -5.3184399070   -12.2398028300
 17     -1.3166710810    -0.8569481940    -7.3408682760
 17     -5.6757121600    -4.1084481830   -11.7499497410
 17     -5.6757121600    -5.6460517840    -5.2519505700
 17     -1.3166710810    -2.3945517950    -0.8428691050
 17     -0.5026570150    -4.4241103260    -8.9023163680
 17     -6.4897262260    -1.1726103370   -10.1885016490
 17     -6.4897262260    -2.0788896520    -3.6905024780
 17     -0.5026570150    -5.3303896400    -2.4043171970
 17     -3.9388902620    -5.2926593470    -8.7132068910
 17     -3.0534929790    -2.0411593580   -10.3776111250
 17     -3.0534929790    -1.2103406310    -3.8796119550
 17     -3.9388902620    -4.4618406190    -2.2152077200
 RECIP-PRIMVEC
   -0.0000000000   -0.1537751812   -0.0000000000

   -0.1430127562   -0.0000000000   -0.0000000000

   -0.0044367358   -0.0000000000   -0.0769467627

 RECIP-CONVVEC
   -0.0000000000   -0.1537751812   -0.0000000000

   -0.1430127562   -0.0000000000   -0.0000000000

   -0.0044367358   -0.0000000000   -0.0769467627

 WIGNER-SEITZ-PRIMCELL
           6
  0.3859241E+01  0.3251500E+01  0.6094820E+01   0.7086963E-16  0.1000000E+01 -0.0000000E+00
  0.3133142E+01  0.3251500E+01 -0.6497999E+01   0.7086963E-16  0.1000000E+01 -0.0000000E+00
 -0.3133142E+01  0.3251500E+01 -0.6497999E+01   0.7086963E-16  0.1000000E+01 -0.0000000E+00
 -0.3859241E+01  0.3251500E+01 -0.6094820E+01   0.7086963E-16  0.1000000E+01 -0.0000000E+00
 -0.3133142E+01  0.3251500E+01  0.6497999E+01   0.7086963E-16  0.1000000E+01 -0.0000000E+00
  0.3133142E+01  0.3251500E+01  0.6497999E+01   0.7086963E-16  0.1000000E+01 -0.0000000E+00
           4
  0.3133142E+01  0.3251500E+01  0.6497999E+01   0.4854505E+00  0.0000000E+00  0.8742642E+00
  0.3133142E+01 -0.3251500E+01  0.6497999E+01   0.4854505E+00  0.0000000E+00  0.8742642E+00
  0.3859241E+01 -0.3251500E+01  0.6094820E+01   0.4854505E+00  0.0000000E+00  0.8742642E+00
  0.3859241E+01  0.3251500E+01  0.6094820E+01   0.4854505E+00  0.0000000E+00  0.8742642E+00
           4
  0.3859241E+01 -0.3251500E+01  0.6094820E+01   0.9983418E+00 -0.0000000E+00 -0.5756420E-01
  0.3133142E+01 -0.3251500E+01 -0.6497999E+01   0.9983418E+00 -0.0000000E+00 -0.5756420E-01
  0.3133142E+01  0.3251500E+01 -0.6497999E+01   0.9983418E+00 -0.0000000E+00 -0.5756420E-01
  0.3859241E+01  0.3251500E+01  0.6094820E+01   0.9983418E+00 -0.0000000E+00 -0.5756420E-01
           4
  0.3133142E+01 -0.3251500E+01  0.6497999E+01   0.1362903E-15 -0.0000000E+00  0.1000000E+01
  0.3133142E+01  0.3251500E+01  0.6497999E+01   0.1362903E-15 -0.0000000E+00  0.1000000E+01
 -0.3133142E+01  0.3251500E+01  0.6497999E+01   0.1362903E-15 -0.0000000E+00  0.1000000E+01
 -0.3133142E+01 -0.3251500E+01  0.6497999E+01   0.1362903E-15 -0.0000000E+00  0.1000000E+01
           4
 -0.3133142E+01 -0.3251500E+01 -0.6497999E+01  -0.3807755E-16  0.0000000E+00 -0.1000000E+01
 -0.3133142E+01  0.3251500E+01 -0.6497999E+01  -0.3807755E-16  0.0000000E+00 -0.1000000E+01
  0.3133142E+01  0.3251500E+01 -0.6497999E+01  -0.3807755E-16  0.0000000E+00 -0.1000000E+01
  0.3133142E+01 -0.3251500E+01 -0.6497999E+01  -0.3807755E-16  0.0000000E+00 -0.1000000E+01
           4
 -0.3133142E+01  0.3251500E+01  0.6497999E+01  -0.9983418E+00  0.5683545E-16  0.5756420E-01
 -0.3859241E+01  0.3251500E+01 -0.6094820E+01  -0.9983418E+00  0.5683545E-16  0.5756420E-01
 -0.3859241E+01 -0.3251500E+01 -0.6094820E+01  -0.9983418E+00  0.5683545E-16  0.5756420E-01
 -0.3133142E+01 -0.3251500E+01  0.6497999E+01  -0.9983418E+00  0.5683545E-16  0.5756420E-01
           4
 -0.3133142E+01  0.3251500E+01 -0.6497999E+01  -0.4854505E+00  0.1644497E-15 -0.8742642E+00
 -0.3133142E+01 -0.3251500E+01 -0.6497999E+01  -0.4854505E+00  0.1644497E-15 -0.8742642E+00
 -0.3859241E+01 -0.3251500E+01 -0.6094820E+01  -0.4854505E+00  0.1644497E-15 -0.8742642E+00
 -0.3859241E+01  0.3251500E+01 -0.6094820E+01  -0.4854505E+00  0.1644497E-15 -0.8742642E+00
           6
  0.3133142E+01 -0.3251500E+01  0.6497999E+01   0.0000000E+00 -0.1000000E+01  0.4502225E-16
 -0.3133142E+01 -0.3251500E+01  0.6497999E+01   0.0000000E+00 -0.1000000E+01  0.4502225E-16
 -0.3859241E+01 -0.3251500E+01 -0.6094820E+01   0.0000000E+00 -0.1000000E+01  0.4502225E-16
 -0.3133142E+01 -0.3251500E+01 -0.6497999E+01   0.0000000E+00 -0.1000000E+01  0.4502225E-16
  0.3133142E+01 -0.3251500E+01 -0.6497999E+01   0.0000000E+00 -0.1000000E+01  0.4502225E-16
  0.3859241E+01 -0.3251500E+01  0.6094820E+01   0.0000000E+00 -0.1000000E+01  0.4502225E-16
 WIGNER-SEITZ-PRIMCELL_END
 WIGNER-SEITZ-CONVCELL
           6
  0.3859241E+01  0.3251500E+01  0.6094820E+01   0.7086963E-16  0.1000000E+01 -0.0000000E+00
  0.3133142E+01  0.3251500E+01 -0.6497999E+01   0.7086963E-16  0.1000000E+01 -0.0000000E+00
 -0.3133142E+01  0.3251500E+01 -0.6497999E+01   0.7086963E-16  0.1000000E+01 -0.0000000E+00
 -0.3859241E+01  0.3251500E+01 -0.6094820E+01   0.7086963E-16  0.1000000E+01 -0.0000000E+00
 -0.3133142E+01  0.3251500E+01  0.6497999E+01   0.7086963E-16  0.1000000E+01 -0.0000000E+00
  0.3133142E+01  0.3251500E+01  0.6497999E+01   0.7086963E-16  0.1000000E+01 -0.0000000E+00
           4
  0.3133142E+01  0.3251500E+01  0.6497999E+01   0.4854505E+00  0.0000000E+00  0.8742642E+00
  0.3133142E+01 -0.3251500E+01  0.6497999E+01   0.4854505E+00  0.0000000E+00  0.8742642E+00
  0.3859241E+01 -0.3251500E+01  0.6094820E+01   0.4854505E+00  0.0000000E+00  0.8742642E+00
  0.3859241E+01  0.3251500E+01  0.6094820E+01   0.4854505E+00  0.0000000E+00  0.8742642E+00
           4
  0.3859241E+01 -0.3251500E+01  0.6094820E+01   0.9983418E+00 -0.0000000E+00 -0.5756420E-01
  0.3133142E+01 -0.3251500E+01 -0.6497999E+01   0.9983418E+00 -0.0000000E+00 -0.5756420E-01
  0.3133142E+01  0.3251500E+01 -0.6497999E+01   0.9983418E+00 -0.0000000E+00 -0.5756420E-01
  0.3859241E+01  0.3251500E+01  0.6094820E+01   0.9983418E+00 -0.0000000E+00 -0.5756420E-01
           4
  0.3133142E+01 -0.3251500E+01  0.6497999E+01   0.1362903E-15 -0.0000000E+00  0.1000000E+01
  0.3133142E+01  0.3251500E+01  0.6497999E+01   0.1362903E-15 -0.0000000E+00  0.1000000E+01
 -0.3133142E+01  0.3251500E+01  0.6497999E+01   0.1362903E-15 -0.0000000E+00  0.1000000E+01
 -0.3133142E+01 -0.3251500E+01  0.6497999E+01   0.1362903E-15 -0.0000000E+00  0.1000000E+01
           4
 -0.3133142E+01 -0.3251500E+01 -0.6497999E+01  -0.3807755E-16  0.0000000E+00 -0.1000000E+01
 -0.3133142E+01  0.3251500E+01 -0.6497999E+01  -0.3807755E-16  0.0000000E+00 -0.1000000E+01
  0.3133142E+01  0.3251500E+01 -0.6497999E+01  -0.3807755E-16  0.0000000E+00 -0.1000000E+01
  0.3133142E+01 -0.3251500E+01 -0.6497999E+01  -0.3807755E-16  0.0000000E+00 -0.1000000E+01
           4
 -0.3133142E+01  0.3251500E+01  0.6497999E+01  -0.9983418E+00  0.5683545E-16  0.5756420E-01
 -0.3859241E+01  0.3251500E+01 -0.6094820E+01  -0.9983418E+00  0.5683545E-16  0.5756420E-01
 -0.3859241E+01 -0.3251500E+01 -0.6094820E+01  -0.9983418E+00  0.5683545E-16  0.5756420E-01
 -0.3133142E+01 -0.3251500E+01  0.6497999E+01  -0.9983418E+00  0.5683545E-16  0.5756420E-01
           4
 -0.3133142E+01  0.3251500E+01 -0.6497999E+01  -0.4854505E+00  0.1644497E-15 -0.8742642E+00
 -0.3133142E+01 -0.3251500E+01 -0.6497999E+01  -0.4854505E+00  0.1644497E-15 -0.8742642E+00
 -0.3859241E+01 -0.3251500E+01 -0.6094820E+01  -0.4854505E+00  0.1644497E-15 -0.8742642E+00
 -0.3859241E+01  0.3251500E+01 -0.6094820E+01  -0.4854505E+00  0.1644497E-15 -0.8742642E+00
           6
  0.3133142E+01 -0.3251500E+01  0.6497999E+01   0.0000000E+00 -0.1000000E+01  0.4502225E-16
 -0.3133142E+01 -0.3251500E+01  0.6497999E+01   0.0000000E+00 -0.1000000E+01  0.4502225E-16
 -0.3859241E+01 -0.3251500E+01 -0.6094820E+01   0.0000000E+00 -0.1000000E+01  0.4502225E-16
 -0.3133142E+01 -0.3251500E+01 -0.6497999E+01   0.0000000E+00 -0.1000000E+01  0.4502225E-16
  0.3133142E+01 -0.3251500E+01 -0.6497999E+01   0.0000000E+00 -0.1000000E+01  0.4502225E-16
  0.3859241E+01 -0.3251500E+01  0.6094820E+01   0.0000000E+00 -0.1000000E+01  0.4502225E-16
 WIGNER-SEITZ-CONVCELL_END
 BRILLOUIN-ZONE-PRIMCELL
           4
 -0.6706964E-01 -0.7688759E-01  0.4246851E-01   0.5756420E-01  0.8127092E-16  0.9983418E+00
  0.7150638E-01 -0.7688759E-01  0.3447825E-01   0.5756420E-01  0.8127092E-16  0.9983418E+00
  0.7150638E-01  0.7688759E-01  0.3447825E-01   0.5756420E-01  0.8127092E-16  0.9983418E+00
 -0.6706964E-01  0.7688759E-01  0.4246851E-01   0.5756420E-01  0.8127092E-16  0.9983418E+00
           4
 -0.6706964E-01  0.7688759E-01  0.4246851E-01  -0.8742642E+00  0.0000000E+00  0.4854505E+00
 -0.7150638E-01  0.7688759E-01  0.3447825E-01  -0.8742642E+00  0.0000000E+00  0.4854505E+00
 -0.7150638E-01 -0.7688759E-01  0.3447825E-01  -0.8742642E+00  0.0000000E+00  0.4854505E+00
 -0.6706964E-01 -0.7688759E-01  0.4246851E-01  -0.8742642E+00  0.0000000E+00  0.4854505E+00
           4
  0.7150638E-01 -0.7688759E-01  0.3447825E-01   0.1000000E+01 -0.0000000E+00 -0.0000000E+00
  0.7150638E-01 -0.7688759E-01 -0.3447825E-01   0.1000000E+01 -0.0000000E+00 -0.0000000E+00
  0.7150638E-01  0.7688759E-01 -0.3447825E-01   0.1000000E+01 -0.0000000E+00 -0.0000000E+00
  0.7150638E-01  0.7688759E-01  0.3447825E-01   0.1000000E+01 -0.0000000E+00 -0.0000000E+00
           6
 -0.7150638E-01 -0.7688759E-01  0.3447825E-01  -0.0000000E+00 -0.1000000E+01 -0.0000000E+00
 -0.7150638E-01 -0.7688759E-01 -0.3447825E-01  -0.0000000E+00 -0.1000000E+01 -0.0000000E+00
  0.6706964E-01 -0.7688759E-01 -0.4246851E-01  -0.0000000E+00 -0.1000000E+01 -0.0000000E+00
  0.7150638E-01 -0.7688759E-01 -0.3447825E-01  -0.0000000E+00 -0.1000000E+01 -0.0000000E+00
  0.7150638E-01 -0.7688759E-01  0.3447825E-01  -0.0000000E+00 -0.1000000E+01 -0.0000000E+00
 -0.6706964E-01 -0.7688759E-01  0.4246851E-01  -0.0000000E+00 -0.1000000E+01 -0.0000000E+00
           6
 -0.6706964E-01  0.7688759E-01  0.4246851E-01   0.0000000E+00  0.1000000E+01  0.0000000E+00
  0.7150638E-01  0.7688759E-01  0.3447825E-01   0.0000000E+00  0.1000000E+01  0.0000000E+00
  0.7150638E-01  0.7688759E-01 -0.3447825E-01   0.0000000E+00  0.1000000E+01  0.0000000E+00
  0.6706964E-01  0.7688759E-01 -0.4246851E-01   0.0000000E+00  0.1000000E+01  0.0000000E+00
 -0.7150638E-01  0.7688759E-01 -0.3447825E-01   0.0000000E+00  0.1000000E+01  0.0000000E+00
 -0.7150638E-01  0.7688759E-01  0.3447825E-01   0.0000000E+00  0.1000000E+01  0.0000000E+00
           4
 -0.7150638E-01 -0.7688759E-01  0.3447825E-01  -0.1000000E+01  0.0000000E+00  0.0000000E+00
 -0.7150638E-01  0.7688759E-01  0.3447825E-01  -0.1000000E+01  0.0000000E+00  0.0000000E+00
 -0.7150638E-01  0.7688759E-01 -0.3447825E-01  -0.1000000E+01  0.0000000E+00  0.0000000E+00
 -0.7150638E-01 -0.7688759E-01 -0.3447825E-01  -0.1000000E+01  0.0000000E+00  0.0000000E+00
           4
  0.6706964E-01 -0.7688759E-01 -0.4246851E-01   0.8742642E+00 -0.9643072E-16 -0.4854505E+00
  0.6706964E-01  0.7688759E-01 -0.4246851E-01   0.8742642E+00 -0.9643072E-16 -0.4854505E+00
  0.7150638E-01  0.7688759E-01 -0.3447825E-01   0.8742642E+00 -0.9643072E-16 -0.4854505E+00
  0.7150638E-01 -0.7688759E-01 -0.3447825E-01   0.8742642E+00 -0.9643072E-16 -0.4854505E+00
           4
 -0.7150638E-01 -0.7688759E-01 -0.3447825E-01  -0.5756420E-01  0.0000000E+00 -0.9983418E+00
 -0.7150638E-01  0.7688759E-01 -0.3447825E-01  -0.5756420E-01  0.0000000E+00 -0.9983418E+00
  0.6706964E-01  0.7688759E-01 -0.4246851E-01  -0.5756420E-01  0.0000000E+00 -0.9983418E+00
  0.6706964E-01 -0.7688759E-01 -0.4246851E-01  -0.5756420E-01  0.0000000E+00 -0.9983418E+00
 BRILLOUIN-ZONE-PRIMCELL_END
 BRILLOUIN-ZONE-CONVCELL
           4
 -0.6706964E-01 -0.7688759E-01  0.4246851E-01   0.5756420E-01  0.8127092E-16  0.9983418E+00
  0.7150638E-01 -0.7688759E-01  0.3447825E-01   0.5756420E-01  0.8127092E-16  0.9983418E+00
  0.7150638E-01  0.7688759E-01  0.3447825E-01   0.5756420E-01  0.8127092E-16  0.9983418E+00
 -0.6706964E-01  0.7688759E-01  0.4246851E-01   0.5756420E-01  0.8127092E-16  0.9983418E+00
           4
 -0.6706964E-01  0.7688759E-01  0.4246851E-01  -0.8742642E+00  0.0000000E+00  0.4854505E+00
 -0.7150638E-01  0.7688759E-01  0.3447825E-01  -0.8742642E+00  0.0000000E+00  0.4854505E+00
 -0.7150638E-01 -0.7688759E-01  0.3447825E-01  -0.8742642E+00  0.0000000E+00  0.4854505E+00
 -0.6706964E-01 -0.7688759E-01  0.4246851E-01  -0.8742642E+00  0.0000000E+00  0.4854505E+00
           4
  0.7150638E-01 -0.7688759E-01  0.3447825E-01   0.1000000E+01 -0.0000000E+00 -0.0000000E+00
  0.7150638E-01 -0.7688759E-01 -0.3447825E-01   0.1000000E+01 -0.0000000E+00 -0.0000000E+00
  0.7150638E-01  0.7688759E-01 -0.3447825E-01   0.1000000E+01 -0.0000000E+00 -0.0000000E+00
  0.7150638E-01  0.7688759E-01  0.3447825E-01   0.1000000E+01 -0.0000000E+00 -0.0000000E+00
           6
 -0.7150638E-01 -0.7688759E-01  0.3447825E-01  -0.0000000E+00 -0.1000000E+01 -0.0000000E+00
 -0.7150638E-01 -0.7688759E-01 -0.3447825E-01  -0.0000000E+00 -0.1000000E+01 -0.0000000E+00
  0.6706964E-01 -0.7688759E-01 -0.4246851E-01  -0.0000000E+00 -0.1000000E+01 -0.0000000E+00
  0.7150638E-01 -0.7688759E-01 -0.3447825E-01  -0.0000000E+00 -0.1000000E+01 -0.0000000E+00
  0.7150638E-01 -0.7688759E-01  0.3447825E-01  -0.0000000E+00 -0.1000000E+01 -0.0000000E+00
 -0.6706964E-01 -0.7688759E-01  0.4246851E-01  -0.0000000E+00 -0.1000000E+01 -0.0000000E+00
           6
 -0.6706964E-01  0.7688759E-01  0.4246851E-01   0.0000000E+00  0.1000000E+01  0.0000000E+00
  0.7150638E-01  0.7688759E-01  0.3447825E-01   0.0000000E+00  0.1000000E+01  0.0000000E+00
  0.7150638E-01  0.7688759E-01 -0.3447825E-01   0.0000000E+00  0.1000000E+01  0.0000000E+00
  0.6706964E-01  0.7688759E-01 -0.4246851E-01   0.0000000E+00  0.1000000E+01  0.0000000E+00
 -0.7150638E-01  0.7688759E-01 -0.3447825E-01   0.0000000E+00  0.1000000E+01  0.0000000E+00
 -0.7150638E-01  0.7688759E-01  0.3447825E-01   0.0000000E+00  0.1000000E+01  0.0000000E+00
           4
 -0.7150638E-01 -0.7688759E-01  0.3447825E-01  -0.1000000E+01  0.0000000E+00  0.0000000E+00
 -0.7150638E-01  0.7688759E-01  0.3447825E-01  -0.1000000E+01  0.0000000E+00  0.0000000E+00
 -0.7150638E-01  0.7688759E-01 -0.3447825E-01  -0.1000000E+01  0.0000000E+00  0.0000000E+00
 -0.7150638E-01 -0.7688759E-01 -0.3447825E-01  -0.1000000E+01  0.0000000E+00  0.0000000E+00
           4
  0.6706964E-01 -0.7688759E-01 -0.4246851E-01   0.8742642E+00 -0.9643072E-16 -0.4854505E+00
  0.6706964E-01  0.7688759E-01 -0.4246851E-01   0.8742642E+00 -0.9643072E-16 -0.4854505E+00
  0.7150638E-01  0.7688759E-01 -0.3447825E-01   0.8742642E+00 -0.9643072E-16 -0.4854505E+00
  0.7150638E-01 -0.7688759E-01 -0.3447825E-01   0.8742642E+00 -0.9643072E-16 -0.4854505E+00
           4
 -0.7150638E-01 -0.7688759E-01 -0.3447825E-01  -0.5756420E-01  0.0000000E+00 -0.9983418E+00
 -0.7150638E-01  0.7688759E-01 -0.3447825E-01  -0.5756420E-01  0.0000000E+00 -0.9983418E+00
  0.6706964E-01  0.7688759E-01 -0.4246851E-01  -0.5756420E-01  0.0000000E+00 -0.9983418E+00
  0.6706964E-01 -0.7688759E-01 -0.4246851E-01  -0.5756420E-01  0.0000000E+00 -0.9983418E+00
 BRILLOUIN-ZONE-CONVCELL_END
 ATOMS
    3   -5.9026695970   -3.1454540340   -1.3995307000   -0.0007592700    0.0000531900    0.0007883900
    3   -1.0897136440   -6.3969540230   -4.6952889750    0.0007592700    0.0000531900   -0.0007883900
    3   -1.0897136440   -3.3575459430  -11.1932881450    0.0007592700   -0.0000531900   -0.0007883900
    3   -5.9026695970   -0.1060459550   -7.8975298710   -0.0007592700   -0.0000531900    0.0007883900
   13   -2.0567859730   -5.3482827580   -7.6872376830    0.0001276900   -0.0004551700    0.0000873200
   13   -4.9355972680   -2.0967827690  -11.4035803330   -0.0001276900   -0.0004551700   -0.0000873200
   13   -4.9355972680   -1.1547172200   -4.9055811630   -0.0001276900    0.0004551700   -0.0000873200
   13   -2.0567859730   -4.4062172090   -1.1892385120    0.0001276900    0.0004551700    0.0000873200
   17   -2.1407067220   -4.4360600600   -5.7418036600   -0.0002189900   -0.0003241500   -0.0005313400
   17   -4.8516765190   -1.1845600710   -0.3530160160    0.0002189900   -0.0003241500    0.0005313400
   17   -4.8516765190   -2.0669399180   -6.8510151860    0.0002189900    0.0003241500    0.0005313400
   17   -2.1407067220   -5.3184399070  -12.2398028300   -0.0002189900    0.0003241500   -0.0005313400
   17   -1.3166710810   -0.8569481940   -7.3408682760   -0.0001751500    0.0006640800    0.0000815800
   17   -5.6757121600   -4.1084481830  -11.7499497410    0.0001751500    0.0006640800   -0.0000815800
   17   -5.6757121600   -5.6460517840   -5.2519505700    0.0001751500   -0.0006640800   -0.0000815800
   17   -1.3166710810   -2.3945517950   -0.8428691050   -0.0001751500   -0.0006640800    0.0000815800
   17   -0.5026570150   -4.4241103260   -8.9023163680   -0.0000705500   -0.0003723100    0.0001286200
   17   -6.4897262260   -1.1726103370  -10.1885016490    0.0000705500   -0.0003723100   -0.0001286200
   17   -6.4897262260   -2.0788896520   -3.6905024780    0.0000705500    0.0003723100   -0.0001286200
   17   -0.5026570150   -5.3303896400   -2.4043171970   -0.0000705500    0.0003723100    0.0001286200
   17   -3.9388902620   -5.2926593470   -8.7132068910    0.0002646200   -0.0004866100    0.0006637800
   17   -3.0534929790   -2.0411593580  -10.3776111250   -0.0002646200   -0.0004866100   -0.0006637800
   17   -3.0534929790   -1.2103406310   -3.8796119550   -0.0002646200    0.0004866100   -0.0006637800
   17   -3.9388902620   -4.4618406190   -2.2152077200    0.0002646200    0.0004866100    0.0006637800
 FRAMES
1      0.0000000000    0.0000000000    0.0000000000      0.0000000000   -6.5029999780    0.0000000000
1      0.0000000000    0.0000000000    0.0000000000     -6.9923832410    0.0000000000    0.4031794960
1      0.0000000000    0.0000000000    0.0000000000      0.0000000000    0.0000000000  -12.9959983410
1      0.0000000000    0.0000000000  -12.9959983410      0.0000000000   -6.5029999780  -12.9959983410
1      0.0000000000    0.0000000000  -12.9959983410     -6.9923832410    0.0000000000  -12.5928188450
1     -6.9923832410    0.0000000000    0.4031794960     -6.9923832410   -6.5029999780    0.4031794960
1     -6.9923832410    0.0000000000    0.4031794960     -6.9923832410    0.0000000000  -12.5928188450
1     -6.9923832410    0.0000000000  -12.5928188450     -6.9923832410   -6.5029999780  -12.5928188450
1      0.0000000000   -6.5029999780    0.0000000000     -6.9923832410   -6.5029999780    0.4031794960
1      0.0000000000   -6.5029999780    0.0000000000      0.0000000000   -6.5029999780  -12.9959983410
1      0.0000000000   -6.5029999780  -12.9959983410     -6.9923832410   -6.5029999780  -12.5928188450
1     -6.9923832410   -6.5029999780    0.4031794960     -6.9923832410   -6.5029999780  -12.5928188450
