data_image0
_chemical_formula_structural       Ge2P2Li20P2S24
_chemical_formula_sum              "Ge2 P4 Li20 S24"
_cell_length_a       8.85281893312917
_cell_length_b       8.860612685630983
_cell_length_c       12.712858374138655
_cell_angle_alpha    90.24923541279666
_cell_angle_beta     90.10936018711071
_cell_angle_gamma    90.00400374671709

_space_group_name_H-M_alt    "P 1"
_space_group_IT_number       1

loop_
  _space_group_symop_operation_xyz
  'x, y, z'

loop_
  _atom_site_type_symbol
  _atom_site_label
  _atom_site_symmetry_multiplicity
  _atom_site_fract_x
  _atom_site_fract_y
  _atom_site_fract_z
  _atom_site_occupancy
  Ge  Ge1       1.0  0.5033323587719928  0.0035796110861259552  0.18378572562808004  1.0000
  Ge  Ge2       1.0  0.4996244786494104  0.9879087027307245  0.6929142714850681  1.0000
  P   P1        1.0  0.008284067890647048  0.5008042056971217  0.3225262167035989  1.0000
  P   P2        1.0  0.9876718158266463  0.5035728264951272  0.814813585164759  1.0000
  Li  Li1       1.0  0.7760909367252711  0.238524383276789  0.3259916002644058  1.0000
  Li  Li2       1.0  0.24073645999416446  0.26107352311590415  0.8267205744974709  1.0000
  Li  Li3       1.0  0.21378118001782223  0.8384554735914321  0.2376868200544422  1.0000
  Li  Li4       1.0  0.2443638319240448  0.7543993694521102  0.6933219640041399  1.0000
  Li  Li5       1.0  0.2579472273602335  0.2494089206343611  0.1801571657528914  1.0000
  Li  Li6       1.0  0.7561650320591677  0.22574061782996263  0.6601706229601235  1.0000
  Li  Li7       1.0  0.7387020837474264  0.7616573193488272  0.1944928609391202  1.0000
  Li  Li8       1.0  0.5298216592816032  0.02337456455728592  0.430414251984488  1.0000
  Li  Li9       1.0  0.47240345122130006  0.03567373759304196  0.9441064977005656  1.0000
  Li  Li10      1.0  0.9997652621915968  0.501841402443401  0.06787457186052603  1.0000
  Li  Li11      1.0  0.009978888430218033  0.4729905393118531  0.5657731191716073  1.0000
  Li  Li12      1.0  0.24379064294606892  0.7972336378132074  0.9546220312940319  1.0000
  Li  Li13      1.0  0.26647693495323094  0.23668764852582558  0.49137388265960646  1.0000
  Li  Li14      1.0  0.7435553383690854  0.20747291517901956  0.9466430690009191  1.0000
  Li  Li15      1.0  0.7493966056638668  0.7420061734163622  0.5152180417258407  1.0000
  Li  Li16      1.0  0.7324393663032248  0.8027275133842173  0.9196295000407647  1.0000
  Li  Li17      1.0  0.3199529559936713  0.7513149146308161  0.4533317968054285  1.0000
  Li  Li18      1.0  0.5205438252321797  0.5250720410008859  0.750609059812101  1.0000
  Li  Li19      1.0  0.9880189190856701  0.9803627718648049  0.7385538878020274  1.0000
  Li  Li20      1.0  0.48985045438090674  0.5082829082485146  0.2426492266093614  1.0000
  P   P3        1.0  0.4920606921205641  0.5025326576826336  0.00279208244683509  1.0000
  P   P4        1.0  0.005960570366850118  0.9894198680809245  0.49525943572833087  1.0000
  S   S1        1.0  0.48598024011257734  0.6888279625468791  0.9044258566429294  1.0000
  S   S2        1.0  0.8167007394894104  0.9787740516314353  0.4047770653414315  1.0000
  S   S3        1.0  0.4984820684847294  0.3223976824552058  0.8989086956800196  1.0000
  S   S4        1.0  0.20008005905092055  0.9932869176751873  0.4063933125760525  1.0000
  S   S5        1.0  0.005101352882905692  0.8007192103843314  0.5909548478382765  1.0000
  S   S6        1.0  0.3048503473352212  0.5044417540123375  0.09725211878978524  1.0000
  S   S7        1.0  0.015127705486278177  0.17307803447745154  0.5959160673763836  1.0000
  S   S8        1.0  0.6776224778808556  0.5108059840235666  0.09801035200546952  1.0000
  S   S9        1.0  0.49477988480253443  0.7647305049154995  0.6064807185750098  1.0000
  S   S10       1.0  0.6948759482577427  0.9853805099034435  0.07222103107783062  1.0000
  S   S11       1.0  0.5049914155839479  0.18352123268844034  0.5849553429427936  1.0000
  S   S12       1.0  0.28724212918733305  0.0007110362739052473  0.09155591225380492  1.0000
  S   S13       1.0  0.9874646775513947  0.6976974557978743  0.904926536736572  1.0000
  S   S14       1.0  0.20069833885813285  0.49800977867526386  0.4155858838056599  1.0000
  S   S15       1.0  0.9944473228772421  0.3203983568545168  0.9132540547357445  1.0000
  S   S16       1.0  0.8203451091598436  0.4942877108460195  0.41846897199891536  1.0000
  S   S17       1.0  0.5029494702636488  0.2118550557231043  0.28331762324994303  1.0000
  S   S18       1.0  0.2870798098155597  0.987519024632717  0.7936919496353787  1.0000
  S   S19       1.0  0.4938457419164237  0.8006031226639702  0.2911241448561665  1.0000
  S   S20       1.0  0.7106022714994842  0.016181208037091298  0.7905761289619283  1.0000
  S   S21       1.0  0.9992129245131419  0.31263942589002075  0.22802549668176547  1.0000
  S   S22       1.0  0.809251040532638  0.4909659650593871  0.7125763815606428  1.0000
  S   S23       1.0  0.9962880751359072  0.6823726925478193  0.22340700084352363  1.0000
  S   S24       1.0  0.18726574543317973  0.49167704134933116  0.7279626579980456  1.0000
