data_image0
_chemical_formula_structural       Ge4Li2O24P6
_chemical_formula_sum              "Ge4 Li2 O24 P6"
_cell_length_a       8.270590000000002
_cell_length_b       8.270590000000002
_cell_length_c       8.326880055033618
_cell_angle_alpha    60.22336955779204
_cell_angle_beta     60.22336955779204
_cell_angle_gamma    59.99999999999999

_space_group_name_H-M_alt    "P 1"
_space_group_IT_number       1

loop_
  _space_group_symop_operation_xyz
  'x, y, z'

loop_
  _atom_site_type_symbol
  _atom_site_label
  _atom_site_symmetry_multiplicity
  _atom_site_fract_x
  _atom_site_fract_y
  _atom_site_fract_z
  _atom_site_occupancy
  Ge  Ge1       1.0  0.36047048468495113  0.36047048468495113  0.9185885459451467  1.0000
  Ge  Ge2       1.0  0.8604704846849509  0.8604704846849511  0.4185885459451469  1.0000
  Ge  Ge3       1.0  0.6395295153150489  0.6395295153150492  0.0814114540548529  1.0000
  Ge  Ge4       1.0  0.1395295153150491  0.13952951531504906  0.5814114540548528  1.0000
  Li  Li1       1.0  0.5  0.5000000000000001  0.4999999999999999  1.0000
  Li  Li2       1.0  1.5643874417466156e-17  9.891060126435293e-17  0.9999999999999999  1.0000
  O   O1        1.0  0.3033334421357945  0.1280995270375738  0.060799156881069245  1.0000
  O   O2        1.0  0.5077678739455624  0.3033334421357948  0.060799156881069245  1.0000
  O   O3        1.0  0.12809952703757352  0.5077678739455623  0.060799156881069245  1.0000
  O   O4        1.0  0.6280995270375742  0.8033334421357945  0.5607991568810691  1.0000
  O   O5        1.0  0.007767873945561972  0.6280995270375738  0.5607991568810691  1.0000
  O   O6        1.0  0.8033334421357952  0.007767873945562376  0.5607991568810691  1.0000
  O   O7        1.0  0.696666557864206  0.8719004729624266  0.93920084311893  1.0000
  O   O8        1.0  0.49223212605443784  0.6966665578642058  0.93920084311893  1.0000
  O   O9        1.0  0.8719004729624265  0.49223212605443817  0.93920084311893  1.0000
  O   O10       1.0  0.37190047296242634  0.19666655786420525  0.4392008431189307  1.0000
  O   O11       1.0  0.9922321260544376  0.3719004729624262  0.4392008431189307  1.0000
  O   O12       1.0  0.19666655786420525  0.9922321260544382  0.4392008431189307  1.0000
  O   O13       1.0  0.5787101335300706  0.23706656031517995  0.7378826309788811  1.0000
  O   O14       1.0  0.44634067517586795  0.5787101335300708  0.7378826309788811  1.0000
  O   O15       1.0  0.23706656031517953  0.446340675175869  0.7378826309788811  1.0000
  O   O16       1.0  0.7370665603151797  0.07871013353007025  0.23788263097888152  1.0000
  O   O17       1.0  0.9463406751758681  0.7370665603151801  0.23788263097888152  1.0000
  O   O18       1.0  0.07871013353007014  0.9463406751758688  0.23788263097888152  1.0000
  O   O19       1.0  0.4212898664699294  0.7629334396848201  0.2621173690211186  1.0000
  O   O20       1.0  0.5536593248241313  0.42128986646992983  0.2621173690211186  1.0000
  O   O21       1.0  0.7629334396848207  0.5536593248241313  0.2621173690211186  1.0000
  O   O22       1.0  0.26293343968481964  0.9212898664699297  0.7621173690211188  1.0000
  O   O23       1.0  0.05365932482413158  0.26293343968482014  0.7621173690211188  1.0000
  O   O24       1.0  0.921289866469929  0.05365932482413149  0.7621173690211188  1.0000
  P   P1        1.0  0.24999999999999983  0.9620920680663028  0.24999999999999986  1.0000
  P   P2        1.0  0.5379079319336975  0.25000000000000006  0.24999999999999986  1.0000
  P   P3        1.0  0.9620920680663027  0.5379079319336976  0.24999999999999986  1.0000
  P   P4        1.0  0.4620920680663023  0.7500000000000001  0.7499999999999999  1.0000
  P   P5        1.0  0.0379079319336976  0.4620920680663027  0.7499999999999999  1.0000
  P   P6        1.0  0.75  0.037907931933697334  0.7499999999999999  1.0000
