data_image0
_chemical_formula_structural       Fe12V24O84Li12
_chemical_formula_sum              "Fe12 V24 O84 Li12"
_cell_length_a       13.694472586328661
_cell_length_b       8.375431350098633
_cell_length_c       14.599978477027223
_cell_angle_alpha    90.0
_cell_angle_beta     95.77858492786794
_cell_angle_gamma    90.0

_space_group_name_H-M_alt    "P 1"
_space_group_IT_number       1

loop_
  _space_group_symop_operation_xyz
  'x, y, z'

loop_
  _atom_site_type_symbol
  _atom_site_label
  _atom_site_symmetry_multiplicity
  _atom_site_fract_x
  _atom_site_fract_y
  _atom_site_fract_z
  _atom_site_occupancy
  Fe  Fe1       1.0  0.4988202690800291  0.8022974846210716  0.3725285375494925  1.0000
  Fe  Fe2       1.0  0.498820269080029  0.19770251537892805  0.8725285375494918  1.0000
  Fe  Fe3       1.0  0.9988202690800304  0.3022974846210722  0.37252853754949256  1.0000
  Fe  Fe4       1.0  0.9988202690800299  0.6977025153789284  0.8725285375494924  1.0000
  Fe  Fe5       1.0  0.8490680047568211  0.8212977219117863  0.5394859380104995  1.0000
  Fe  Fe6       1.0  0.8490680047568228  0.17870227808821404  0.03948593801050037  1.0000
  Fe  Fe7       1.0  0.34906800475682154  0.32129772191178607  0.5394859380104998  1.0000
  Fe  Fe8       1.0  0.3490680047568211  0.6787022780882137  0.039485938010500383  1.0000
  Fe  Fe9       1.0  0.7016576173400743  0.3044219912505755  0.7101460634567344  1.0000
  Fe  Fe10      1.0  0.7016576173400737  0.6955780087494247  0.21014606345673548  1.0000
  Fe  Fe11      1.0  0.2016576173400735  0.8044219912505759  0.7101460634567353  1.0000
  Fe  Fe12      1.0  0.20165761734007365  0.1955780087494248  0.21014606345673534  1.0000
  V   V1        1.0  0.4217253677803621  0.022733866998328557  0.17734607266403887  1.0000
  V   V2        1.0  0.4217253677803621  0.977266133001673  0.6773460726640381  1.0000
  V   V3        1.0  0.9217253677803623  0.5227338669983289  0.1773460726640388  1.0000
  V   V4        1.0  0.9217253677803623  0.47726613300167164  0.677346072664038  1.0000
  V   V5        1.0  0.7043334225444501  0.9665758344845657  0.35479136905750147  1.0000
  V   V6        1.0  0.7043334225444491  0.03342416551543497  0.8547913690575014  1.0000
  V   V7        1.0  0.20433342254444867  0.46657583448456535  0.3547913690575015  1.0000
  V   V8        1.0  0.20433342254444814  0.5334241655154346  0.8547913690575009  1.0000
  V   V9        1.0  0.5729997889503388  0.4631777276573002  0.5170357929202017  1.0000
  V   V10       1.0  0.5729997889503387  0.5368222723427004  0.017035792920202346  1.0000
  V   V11       1.0  0.07299978895033864  0.9631777276572997  0.5170357929202019  1.0000
  V   V12       1.0  0.0729997889503387  0.03682227234270019  0.01703579292020236  1.0000
  V   V13       1.0  0.6286336570037191  0.9599600672791073  0.5655072051203717  1.0000
  V   V14       1.0  0.6286336570037183  0.04003993272089305  0.06550720512037271  1.0000
  V   V15       1.0  0.1286336570037182  0.45996006727910704  0.5655072051203712  1.0000
  V   V16       1.0  0.12863365700371843  0.5400399327208931  0.06550720512037274  1.0000
  V   V17       1.0  0.2760063024706707  0.973379314413753  0.40259479306247625  1.0000
  V   V18       1.0  0.2760063024706706  0.02662068558624904  0.902594793062476  1.0000
  V   V19       1.0  0.7760063024706714  0.47337931441375125  0.4025947930624764  1.0000
  V   V20       1.0  0.7760063024706714  0.5266206855862493  0.9025947930624761  1.0000
  V   V21       1.0  0.40945473249008973  0.46338787725619096  0.23886391652989564  1.0000
  V   V22       1.0  0.4094547324900894  0.53661212274381  0.7388639165298954  1.0000
  V   V23       1.0  0.909454732490089  0.96338787725619  0.23886391652989541  1.0000
  V   V24       1.0  0.9094547324900881  0.03661212274380961  0.7388639165298948  1.0000
  O   O1        1.0  0.4800367923293721  0.3274373208032667  0.4845477537132291  1.0000
  O   O2        1.0  0.4800367923293717  0.6725626791967334  0.9845477537132289  1.0000
  O   O3        1.0  0.9800367923293718  0.8274373208032663  0.4845477537132293  1.0000
  O   O4        1.0  0.9800367923293717  0.17256267919673368  0.9845477537132284  1.0000
  O   O5        1.0  0.32513171674710223  0.1553217256830736  0.1484599181925633  1.0000
  O   O6        1.0  0.3251317167471022  0.8446782743169272  0.6484599181925635  1.0000
  O   O7        1.0  0.8251317167471033  0.6553217256830729  0.14845991819256332  1.0000
  O   O8        1.0  0.8251317167471022  0.3446782743169268  0.6484599181925635  1.0000
  O   O9        1.0  0.236381322440106  0.9962406995794533  0.28622334711890085  1.0000
  O   O10       1.0  0.23638132244010598  0.003759300420547939  0.7862233471189006  1.0000
  O   O11       1.0  0.7363813224401069  0.4962406995794509  0.28622334711890035  1.0000
  O   O12       1.0  0.736381322440106  0.5037593004205487  0.7862233471189004  1.0000
  O   O13       1.0  0.3941101322354685  0.49251666512638653  0.11942642167198102  1.0000
  O   O14       1.0  0.39411013223546837  0.5074833348736132  0.6194264216719806  1.0000
  O   O15       1.0  0.8941101322354665  0.9925166651263864  0.1194264216719809  1.0000
  O   O16       1.0  0.8941101322354681  0.007483334873614089  0.6194264216719807  1.0000
  O   O17       1.0  0.4367226679177655  0.6401375170894125  0.29391652729796813  1.0000
  O   O18       1.0  0.436722667917766  0.3598624829105873  0.7939165272979675  1.0000
  O   O19       1.0  0.9367226679177649  0.14013751708941288  0.2939165272979681  1.0000
  O   O20       1.0  0.9367226679177642  0.859862482910588  0.793916527297968  1.0000
  O   O21       1.0  0.30586880611182543  0.15695771988253596  0.44623808833096495  1.0000
  O   O22       1.0  0.3058688061118253  0.8430422801174638  0.9462380883309647  1.0000
  O   O23       1.0  0.8058688061118273  0.6569577198825363  0.4462380883309653  1.0000
  O   O24       1.0  0.805868806111826  0.34304228011746457  0.9462380883309647  1.0000
  O   O25       1.0  0.526321577315347  0.900916170544645  0.6239733174594799  1.0000
  O   O26       1.0  0.5263215773153472  0.09908382945535454  0.12397331745948041  1.0000
  O   O27       1.0  0.026321577315346605  0.4009161705446456  0.6239733174594796  1.0000
  O   O28       1.0  0.026321577315346793  0.5990838294553548  0.12397331745948043  1.0000
  O   O29       1.0  0.6259654776357598  0.7954516929009229  0.3075904109024998  1.0000
  O   O30       1.0  0.6259654776357599  0.2045483070990771  0.8075904109024995  1.0000
  O   O31       1.0  0.1259654776357599  0.29545169290092294  0.3075904109024998  1.0000
  O   O32       1.0  0.12596547763576002  0.7045483070990772  0.8075904109024998  1.0000
  O   O33       1.0  0.5879413004062263  0.9730898664069673  0.44343685988687676  1.0000
  O   O34       1.0  0.5879413004062258  0.026910133593032338  0.9434368598868758  1.0000
  O   O35       1.0  0.08794130040622573  0.4730898664069677  0.4434368598868763  1.0000
  O   O36       1.0  0.08794130040622562  0.5269101335930324  0.9434368598868758  1.0000
  O   O37       1.0  0.671682297015939  0.14155250514879994  0.3087351765744892  1.0000
  O   O38       1.0  0.6716822970159388  0.8584474948512005  0.808735176574488  1.0000
  O   O39       1.0  0.1716822970159389  0.6415525051487992  0.3087351765744899  1.0000
  O   O40       1.0  0.17168229701593862  0.3584474948512004  0.8087351765744885  1.0000
  O   O41       1.0  0.6677443614749192  0.14017831224872299  0.608892201449846  1.0000
  O   O42       1.0  0.6677443614749202  0.8598216877512767  0.1088922014498462  1.0000
  O   O43       1.0  0.16774436147491864  0.640178312248723  0.6088922014498449  1.0000
  O   O44       1.0  0.16774436147491897  0.359821687751277  0.10889220144984617  1.0000
  O   O45       1.0  0.6738465445368728  0.3943964753808257  0.4572307300722417  1.0000
  O   O46       1.0  0.6738465445368722  0.6056035246191738  0.9572307300722407  1.0000
  O   O47       1.0  0.17384654453687198  0.8943964753808249  0.4572307300722418  1.0000
  O   O48       1.0  0.17384654453687196  0.10560352461917451  0.9572307300722411  1.0000
  O   O49       1.0  0.29387715300754647  0.38389969919722555  0.2772895033941347  1.0000
  O   O50       1.0  0.29387715300754674  0.6161003008027747  0.7772895033941349  1.0000
  O   O51       1.0  0.7938771530075474  0.8838996991972246  0.2772895033941346  1.0000
  O   O52       1.0  0.7938771530075471  0.11610030080277522  0.7772895033941346  1.0000
  O   O53       1.0  0.502812395125189  0.33589563805422123  0.26760140584226083  1.0000
  O   O54       1.0  0.5028123951251882  0.6641043619457788  0.7676014058422603  1.0000
  O   O55       1.0  0.002812395125188407  0.8358956380542213  0.2676014058422608  1.0000
  O   O56       1.0  0.00281239512518833  0.16410436194577918  0.7676014058422608  1.0000
  O   O57       1.0  0.4526992859584382  0.9983899453993164  0.29448234819555785  1.0000
  O   O58       1.0  0.4526992859584381  0.0016100546006825311  0.7944823481955581  1.0000
  O   O59       1.0  0.9526992859584396  0.49838994539931586  0.2944823481955582  1.0000
  O   O60       1.0  0.9526992859584397  0.5016100546006845  0.7944823481955584  1.0000
  O   O61       1.0  0.54046971256413  0.6498838643166852  0.47707593417928446  1.0000
  O   O62       1.0  0.5404697125641297  0.3501161356833148  0.9770759341792832  1.0000
  O   O63       1.0  0.04046971256412955  0.14988386431668554  0.4770759341792843  1.0000
  O   O64       1.0  0.040469712564129574  0.8501161356833146  0.977075934179284  1.0000
  O   O65       1.0  0.39365523751587755  0.8424192584676199  0.12980648838549305  1.0000
  O   O66       1.0  0.39365523751587783  0.1575807415323806  0.6298064883854922  1.0000
  O   O67       1.0  0.8936552375158775  0.3424192584676199  0.12980648838549305  1.0000
  O   O68       1.0  0.8936552375158772  0.6575807415323807  0.6298064883854926  1.0000
  O   O69       1.0  0.7820192968571839  0.992675254509382  0.4575481198282664  1.0000
  O   O70       1.0  0.7820192968571845  0.007324745490618615  0.957548119828266  1.0000
  O   O71       1.0  0.2820192968571834  0.4926752545093815  0.4575481198282661  1.0000
  O   O72       1.0  0.28201929685718347  0.5073247454906183  0.9575481198282658  1.0000
  O   O73       1.0  0.6134048849567841  0.45885078368493176  0.6343805358784027  1.0000
  O   O74       1.0  0.6134048849567847  0.5411492163150684  0.13438053587840365  1.0000
  O   O75       1.0  0.11340488495678422  0.9588507836849323  0.6343805358784028  1.0000
  O   O76       1.0  0.11340488495678451  0.041149216315068064  0.1343805358784036  1.0000
  O   O77       1.0  0.37214174223192825  0.8407002618263898  0.4319454400172082  1.0000
  O   O78       1.0  0.37214174223192814  0.15929973817361  0.931945440017208  1.0000
  O   O79       1.0  0.872141742231928  0.3407002618263899  0.4319454400172081  1.0000
  O   O80       1.0  0.8721417422319276  0.6592997381736101  0.9319454400172084  1.0000
  O   O81       1.0  0.7136777269480636  0.8151767667132962  0.5958798758094622  1.0000
  O   O82       1.0  0.7136777269480633  0.18482323328670328  0.09587987580946272  1.0000
  O   O83       1.0  0.21367772694806297  0.315176766713297  0.5958798758094627  1.0000
  O   O84       1.0  0.2136777269480632  0.6848232332867031  0.0958798758094627  1.0000
  Li  Li1       1.0  0.6391974768838816  0.6704653232967996  0.7138824308509796  1.0000
  Li  Li2       1.0  0.6391974768838823  0.3295346767032006  0.2138824308509802  1.0000
  Li  Li3       1.0  0.13919747688388126  0.17046532329679934  0.7138824308509789  1.0000
  Li  Li4       1.0  0.13919747688388123  0.8295346767032007  0.21388243085098013  1.0000
  Li  Li5       1.0  0.3346843102870263  0.3092108434864751  0.03599735515979978  1.0000
  Li  Li6       1.0  0.3346843102870265  0.6907891565135248  0.5359973551597992  1.0000
  Li  Li7       1.0  0.8346843102870262  0.8092108434864749  0.035997355159799765  1.0000
  Li  Li8       1.0  0.8346843102870273  0.1907891565135257  0.5359973551597992  1.0000
  Li  Li9       1.0  0.522308634615822  0.1840189020847148  0.37394011883756534  1.0000
  Li  Li10      1.0  0.5223086346158226  0.8159810979152848  0.8739401188375641  1.0000
  Li  Li11      1.0  0.022308634615822116  0.6840189020847144  0.37394011883756517  1.0000
  Li  Li12      1.0  0.02230863461582196  0.3159810979152857  0.8739401188375641  1.0000
