data_image0
_chemical_formula_structural       Fe12V24O84Li12
_chemical_formula_sum              "Fe12 V24 O84 Li12"
_cell_length_a       13.715087828051468
_cell_length_b       8.398019006489347
_cell_length_c       14.548324443336003
_cell_angle_alpha    90.00000000000003
_cell_angle_beta     95.71925063910707
_cell_angle_gamma    90.0

_space_group_name_H-M_alt    "P 1"
_space_group_IT_number       1

loop_
  _space_group_symop_operation_xyz
  'x, y, z'

loop_
  _atom_site_type_symbol
  _atom_site_label
  _atom_site_symmetry_multiplicity
  _atom_site_fract_x
  _atom_site_fract_y
  _atom_site_fract_z
  _atom_site_occupancy
  Fe  Fe1       1.0  0.4977331308225549  0.8002943150471007  0.372580295343828  1.0000
  Fe  Fe2       1.0  0.4977331308225564  0.19970568495289803  0.8725802953438297  1.0000
  Fe  Fe3       1.0  0.9977331308225534  0.30029431504710247  0.372580295343828  1.0000
  Fe  Fe4       1.0  0.9977331308225542  0.6997056849528974  0.8725802953438284  1.0000
  Fe  Fe5       1.0  0.8494969722853222  0.8236207063821713  0.5392066177597911  1.0000
  Fe  Fe6       1.0  0.8494969722853227  0.17637929361782723  0.039206617759791326  1.0000
  Fe  Fe7       1.0  0.3494969722853237  0.3236207063821724  0.5392066177597916  1.0000
  Fe  Fe8       1.0  0.34949697228532406  0.6763792936178279  0.03920661775979126  1.0000
  Fe  Fe9       1.0  0.7028388050648048  0.3045720567710752  0.7088742125779357  1.0000
  Fe  Fe10      1.0  0.702838805064807  0.6954279432289241  0.20887421257793445  1.0000
  Fe  Fe11      1.0  0.20283880506480548  0.8045720567710756  0.7088742125779353  1.0000
  Fe  Fe12      1.0  0.20283880506480587  0.19542794322892498  0.208874212577934  1.0000
  V   V1        1.0  0.42116949495096245  0.020562875691645357  0.17723797071865274  1.0000
  V   V2        1.0  0.421169494950962  0.9794371243083523  0.6772379707186523  1.0000
  V   V3        1.0  0.921169494950963  0.5205628756916468  0.17723797071865308  1.0000
  V   V4        1.0  0.921169494950963  0.47943712430835433  0.6772379707186531  1.0000
  V   V5        1.0  0.702778581731124  0.9635622283356393  0.35494771496017785  1.0000
  V   V6        1.0  0.7027785817311262  0.036437771664362406  0.8549477149601784  1.0000
  V   V7        1.0  0.20277858173112473  0.46356222833563765  0.35494771496017824  1.0000
  V   V8        1.0  0.2027785817311248  0.5364377716643609  0.854947714960179  1.0000
  V   V9        1.0  0.5727130747998923  0.46106846360450554  0.5169262236080144  1.0000
  V   V10       1.0  0.572713074799892  0.5389315363954951  0.016926223608013786  1.0000
  V   V11       1.0  0.07271307479989159  0.961068463604504  0.5169262236080143  1.0000
  V   V12       1.0  0.07271307479989166  0.03893153639549489  0.016926223608013873  1.0000
  V   V13       1.0  0.628262803981765  0.9585041075086326  0.566962857593505  1.0000
  V   V14       1.0  0.6282628039817655  0.041495892491367085  0.06696285759350494  1.0000
  V   V15       1.0  0.12826280398176637  0.45850410750863324  0.5669628575935055  1.0000
  V   V16       1.0  0.12826280398176632  0.5414958924913661  0.06696285759350482  1.0000
  V   V17       1.0  0.27651415773967214  0.9760378343815814  0.4030053744849036  1.0000
  V   V18       1.0  0.2765141577396729  0.023962165618419698  0.9030053744849065  1.0000
  V   V19       1.0  0.7765141577396732  0.47603783438158065  0.4030053744849045  1.0000
  V   V20       1.0  0.7765141577396711  0.5239621656184192  0.9030053744849054  1.0000
  V   V21       1.0  0.4074812295545457  0.4629468606773404  0.23899091963763908  1.0000
  V   V22       1.0  0.4074812295545455  0.537053139322659  0.7389909196376411  1.0000
  V   V23       1.0  0.9074812295545446  0.9629468606773385  0.23899091963763894  1.0000
  V   V24       1.0  0.9074812295545449  0.03705313932265967  0.7389909196376401  1.0000
  O   O1        1.0  0.481394137578623  0.3239245903128564  0.48410030992106634  1.0000
  O   O2        1.0  0.48139413757862354  0.6760754096871435  0.9841003099210669  1.0000
  O   O3        1.0  0.9813941375786239  0.8239245903128564  0.4841003099210658  1.0000
  O   O4        1.0  0.9813941375786255  0.17607540968714427  0.9841003099210663  1.0000
  O   O5        1.0  0.32485931474493696  0.15297636494086117  0.14699247610315472  1.0000
  O   O6        1.0  0.3248593147449373  0.8470236350591381  0.6469924761031545  1.0000
  O   O7        1.0  0.8248593147449385  0.6529763649408603  0.14699247610315455  1.0000
  O   O8        1.0  0.8248593147449355  0.3470236350591381  0.6469924761031566  1.0000
  O   O9        1.0  0.23726861111993594  0.997756703004522  0.2860196547083195  1.0000
  O   O10       1.0  0.23726861111993575  0.002243296995478469  0.7860196547083199  1.0000
  O   O11       1.0  0.7372686111199382  0.4977567030045222  0.28601965470831975  1.0000
  O   O12       1.0  0.7372686111199375  0.5022432969954789  0.7860196547083215  1.0000
  O   O13       1.0  0.3941684552725135  0.4904923173337  0.11850919954873727  1.0000
  O   O14       1.0  0.3941684552725129  0.5095076826662982  0.6185091995487356  1.0000
  O   O15       1.0  0.8941684552725119  0.9904923173336977  0.11850919954873733  1.0000
  O   O16       1.0  0.894168455272512  0.009507682666298855  0.6185091995487363  1.0000
  O   O17       1.0  0.43282793482589255  0.6403573723235995  0.2937411986723823  1.0000
  O   O18       1.0  0.4328279348258928  0.3596426276764014  0.7937411986723825  1.0000
  O   O19       1.0  0.9328279348258929  0.14035737232359888  0.2937411986723831  1.0000
  O   O20       1.0  0.9328279348258924  0.859642627676401  0.7937411986723822  1.0000
  O   O21       1.0  0.30360377025943586  0.1594582432240588  0.44640345238359525  1.0000
  O   O22       1.0  0.30360377025943647  0.8405417567759408  0.9464034523835954  1.0000
  O   O23       1.0  0.8036037702594361  0.6594582432240578  0.44640345238359547  1.0000
  O   O24       1.0  0.8036037702594359  0.34054175677594084  0.9464034523835969  1.0000
  O   O25       1.0  0.5248470017454511  0.9008398368847969  0.6238942638272645  1.0000
  O   O26       1.0  0.5248470017454498  0.09916016311520397  0.12389426382726587  1.0000
  O   O27       1.0  0.024847001745450258  0.4008398368847971  0.6238942638272656  1.0000
  O   O28       1.0  0.02484700174545038  0.5991601631152034  0.12389426382726598  1.0000
  O   O29       1.0  0.6260804386689344  0.7932413031339833  0.30759917604309145  1.0000
  O   O30       1.0  0.6260804386689343  0.2067586968660175  0.8075991760430927  1.0000
  O   O31       1.0  0.12608043866893448  0.2932413031339826  0.30759917604309217  1.0000
  O   O32       1.0  0.12608043866893479  0.7067586968660158  0.807599176043093  1.0000
  O   O33       1.0  0.5897409009446402  0.967607759950161  0.4440368239679329  1.0000
  O   O34       1.0  0.5897409009446405  0.032392240049839316  0.9440368239679312  1.0000
  O   O35       1.0  0.08974090094464103  0.46760775995016096  0.4440368239679323  1.0000
  O   O36       1.0  0.08974090094464096  0.5323922400498384  0.9440368239679322  1.0000
  O   O37       1.0  0.6689892872776491  0.13765496699802837  0.30825397080934064  1.0000
  O   O38       1.0  0.6689892872776483  0.8623450330019714  0.808253970809343  1.0000
  O   O39       1.0  0.16898928727764895  0.6376549669980275  0.30825397080934064  1.0000
  O   O40       1.0  0.1689892872776491  0.3623450330019716  0.8082539708093422  1.0000
  O   O41       1.0  0.666919757394626  0.13928758576304617  0.6092275654079037  1.0000
  O   O42       1.0  0.6669197573946232  0.8607124142369537  0.10922756540790304  1.0000
  O   O43       1.0  0.16691975739462755  0.6392875857630463  0.6092275654079047  1.0000
  O   O44       1.0  0.16691975739462772  0.360712414236954  0.10922756540790284  1.0000
  O   O45       1.0  0.6742194050747919  0.39680875074508787  0.4565978932784262  1.0000
  O   O46       1.0  0.6742194050747897  0.6031912492549117  0.9565978932784275  1.0000
  O   O47       1.0  0.17421940507479036  0.8968087507450873  0.45659789327842687  1.0000
  O   O48       1.0  0.17421940507479047  0.10319124925491197  0.9565978932784271  1.0000
  O   O49       1.0  0.2930926027409866  0.38227065049245773  0.2769085276221156  1.0000
  O   O50       1.0  0.2930926027409868  0.6177293495075437  0.7769085276221175  1.0000
  O   O51       1.0  0.7930926027409876  0.8822706504924556  0.2769085276221166  1.0000
  O   O52       1.0  0.7930926027409857  0.11772934950754252  0.7769085276221179  1.0000
  O   O53       1.0  0.5018587989025242  0.3386731611000254  0.26872155543590553  1.0000
  O   O54       1.0  0.5018587989025237  0.6613268388999767  0.7687215554359075  1.0000
  O   O55       1.0  0.0018587989025241058  0.8386731611000253  0.2687215554359053  1.0000
  O   O56       1.0  0.0018587989025240718  0.16132683889997532  0.7687215554359079  1.0000
  O   O57       1.0  0.4536151065920961  0.9976712170568002  0.29484521903110966  1.0000
  O   O58       1.0  0.4536151065920966  0.0023287829432003804  0.7948452190311119  1.0000
  O   O59       1.0  0.9536151065920961  0.4976712170568006  0.29484521903111  1.0000
  O   O60       1.0  0.9536151065920955  0.5023287829432003  0.7948452190311129  1.0000
  O   O61       1.0  0.5384612857913819  0.6465506846336171  0.47669175012678255  1.0000
  O   O62       1.0  0.5384612857913827  0.3534493153663824  0.9766917501267848  1.0000
  O   O63       1.0  0.038461285791381805  0.14655068463361637  0.47669175012678217  1.0000
  O   O64       1.0  0.038461285791382194  0.8534493153663821  0.9766917501267848  1.0000
  O   O65       1.0  0.3945740265197396  0.8408697611256777  0.1292818783147105  1.0000
  O   O66       1.0  0.39457402651973966  0.1591302388743215  0.6292818783147108  1.0000
  O   O67       1.0  0.8945740265197367  0.34086976112567785  0.12928187831471047  1.0000
  O   O68       1.0  0.8945740265197383  0.6591302388743209  0.629281878314713  1.0000
  O   O69       1.0  0.7844169948049969  0.9911362164920342  0.4551991548452203  1.0000
  O   O70       1.0  0.7844169948049949  0.008863783507965491  0.9551991548452201  1.0000
  O   O71       1.0  0.28441699480499527  0.49113621649203426  0.45519915484521983  1.0000
  O   O72       1.0  0.2844169948049952  0.5088637835079655  0.9551991548452218  1.0000
  O   O73       1.0  0.6129100080820542  0.4559919670926411  0.6347702450413791  1.0000
  O   O74       1.0  0.6129100080820552  0.5440080329073591  0.13477024504137752  1.0000
  O   O75       1.0  0.11291000808205406  0.9559919670926406  0.6347702450413776  1.0000
  O   O76       1.0  0.11291000808205415  0.04400803290735954  0.1347702450413775  1.0000
  O   O77       1.0  0.37335649542736515  0.8455351578141647  0.4339004941483532  1.0000
  O   O78       1.0  0.37335649542736477  0.15446484218583578  0.9339004941483541  1.0000
  O   O79       1.0  0.8733564954273643  0.345535157814165  0.433900494148353  1.0000
  O   O80       1.0  0.8733564954273656  0.6544648421858366  0.9339004941483532  1.0000
  O   O81       1.0  0.7145871233257574  0.8164578370070333  0.5962386553651432  1.0000
  O   O82       1.0  0.7145871233257561  0.18354216299296708  0.09623865536514123  1.0000
  O   O83       1.0  0.21458712332575636  0.3164578370070322  0.5962386553651444  1.0000
  O   O84       1.0  0.21458712332575677  0.6835421629929673  0.09623865536514133  1.0000
  Li  Li1       1.0  0.6385340073173705  0.6679216234771503  0.719413721767462  1.0000
  Li  Li2       1.0  0.6385340073173696  0.33207837652285044  0.21941372176746046  1.0000
  Li  Li3       1.0  0.1385340073173692  0.1679216234771503  0.719413721767461  1.0000
  Li  Li4       1.0  0.138534007317369  0.8320783765228513  0.21941372176746024  1.0000
  Li  Li5       1.0  0.3405969404402953  0.30802113204087445  0.035195783316815596  1.0000
  Li  Li6       1.0  0.34059694044029576  0.6919788679591267  0.535195783316817  1.0000
  Li  Li7       1.0  0.8405969404402952  0.8080211320408742  0.03519578331681553  1.0000
  Li  Li8       1.0  0.8405969404402959  0.19197886795912564  0.5351957833168159  1.0000
  Li  Li9       1.0  0.5254893309659501  0.18285332851658231  0.3715248128205032  1.0000
  Li  Li10      1.0  0.5254893309659493  0.8171466714834175  0.8715248128205058  1.0000
  Li  Li11      1.0  0.02548933096594939  0.6828533285165814  0.3715248128205027  1.0000
  Li  Li12      1.0  0.025489330965949818  0.3171466714834177  0.8715248128205052  1.0000
