data_image0
_chemical_formula_structural       Fe12V24O84Li20
_chemical_formula_sum              "Fe12 V24 O84 Li20"
_cell_length_a       13.875530325317033
_cell_length_b       8.376017367885709
_cell_length_c       14.403454415265323
_cell_angle_alpha    89.70112726283703
_cell_angle_beta     95.87398977295321
_cell_angle_gamma    89.87685037564977

_space_group_name_H-M_alt    "P 1"
_space_group_IT_number       1

loop_
  _space_group_symop_operation_xyz
  'x, y, z'

loop_
  _atom_site_type_symbol
  _atom_site_label
  _atom_site_symmetry_multiplicity
  _atom_site_fract_x
  _atom_site_fract_y
  _atom_site_fract_z
  _atom_site_occupancy
  Fe  Fe1       1.0  0.5008902733478848  0.8066200986787139  0.36997683387899377  1.0000
  Fe  Fe2       1.0  0.49771888114991464  0.19397362631438853  0.8728658065932108  1.0000
  Fe  Fe3       1.0  0.9999668362783821  0.305975322760375  0.3717022105856103  1.0000
  Fe  Fe4       1.0  0.0005761336803118021  0.6952437429542329  0.8711011740299242  1.0000
  Fe  Fe5       1.0  0.8503333177004534  0.8127502169299065  0.5334113633515258  1.0000
  Fe  Fe6       1.0  0.8457715811527748  0.19119077380070595  0.0408126320384881  1.0000
  Fe  Fe7       1.0  0.348313343166204  0.3201392110168371  0.5354032567987943  1.0000
  Fe  Fe8       1.0  0.34518860339368723  0.6872062564334912  0.0383784440632127  1.0000
  Fe  Fe9       1.0  0.7158687604989922  0.316603090286776  0.7119698873515218  1.0000
  Fe  Fe10      1.0  0.7213611716101765  0.6818506359345591  0.21314096719435577  1.0000
  Fe  Fe11      1.0  0.21671370304340337  0.8136315932231213  0.7130869296572797  1.0000
  Fe  Fe12      1.0  0.21953041460375286  0.1818063858538821  0.210986491042874  1.0000
  V   V1        1.0  0.4410269040595907  0.038815350933028  0.17173650650315148  1.0000
  V   V2        1.0  0.42990375394702335  0.9688461411659618  0.6712160948533068  1.0000
  V   V3        1.0  0.9417390355185518  0.5403053932529005  0.1720377745294499  1.0000
  V   V4        1.0  0.9331108331121384  0.4619724416991247  0.6742372402752678  1.0000
  V   V5        1.0  0.6989407849066751  0.958483149540882  0.3553222347112026  1.0000
  V   V6        1.0  0.6927251360614547  0.041587087354855605  0.8559065923412347  1.0000
  V   V7        1.0  0.2002044548419164  0.45739766570465434  0.3526974560831349  1.0000
  V   V8        1.0  0.18961874156722297  0.5348767127808004  0.850469998922854  1.0000
  V   V9        1.0  0.5726033921442664  0.45895955850215137  0.5102078015159819  1.0000
  V   V10       1.0  0.5711618512196566  0.5383037323197755  0.010985556998875299  1.0000
  V   V11       1.0  0.07708323549443459  0.9602323782149541  0.5116658825181943  1.0000
  V   V12       1.0  0.07388998314672789  0.0373869969663048  0.010939163823017899  1.0000
  V   V13       1.0  0.6396598528573278  0.9516564114169129  0.5650527345886899  1.0000
  V   V14       1.0  0.6557771740819546  0.03350796694978439  0.06083269100253119  1.0000
  V   V15       1.0  0.1383375865373679  0.452039581605753  0.5664888854982449  1.0000
  V   V16       1.0  0.15811237627787728  0.5340764719514297  0.05776746277691559  1.0000
  V   V17       1.0  0.27814335043500893  0.9664204760296402  0.4028928829264302  1.0000
  V   V18       1.0  0.27644653648666656  0.0358198646877597  0.9023298514816888  1.0000
  V   V19       1.0  0.7743857516086691  0.4599772595822246  0.3994457123181832  1.0000
  V   V20       1.0  0.7723920476940052  0.5369879617756794  0.901062203256771  1.0000
  V   V21       1.0  0.407352894834645  0.4637036362003855  0.239942300392606  1.0000
  V   V22       1.0  0.40469529863072745  0.5413022559033749  0.7409368408493862  1.0000
  V   V23       1.0  0.9069394989938785  0.963491685037809  0.2404854849884899  1.0000
  V   V24       1.0  0.9025063801966694  0.0419910912336761  0.7434664563905145  1.0000
  O   O1        1.0  0.47917893419936763  0.32261244021250235  0.4843435518613575  1.0000
  O   O2        1.0  0.47910017327355797  0.6770384299427761  0.985396792388201  1.0000
  O   O3        1.0  0.9893046379714932  0.8212214996907222  0.4841803310121549  1.0000
  O   O4        1.0  0.980636461998145  0.1783191774455162  0.9901943949839307  1.0000
  O   O5        1.0  0.3420061100951273  0.1560614420297668  0.1406669797533837  1.0000
  O   O6        1.0  0.33517148380519046  0.8470273748808027  0.6390155909523402  1.0000
  O   O7        1.0  0.8438377241123263  0.6611510987746742  0.14078665572925078  1.0000
  O   O8        1.0  0.835053845314789  0.3469161241359018  0.6399763548167172  1.0000
  O   O9        1.0  0.24717551741618848  0.9723100717247777  0.2838030656358015  1.0000
  O   O10       1.0  0.24418841064378674  0.0358147880892972  0.7832527756400296  1.0000
  O   O11       1.0  0.7431793100002294  0.4639462896051043  0.27948448441425455  1.0000
  O   O12       1.0  0.73979748126753  0.5381168648826602  0.7811313716809423  1.0000
  O   O13       1.0  0.39457576476576856  0.49240383140370625  0.120181346133478  1.0000
  O   O14       1.0  0.3931829100067502  0.5088539988126398  0.6196621956491483  1.0000
  O   O15       1.0  0.8943846155028438  0.992726033564786  0.12030675151504508  1.0000
  O   O16       1.0  0.894481127100711  0.015310800487434098  0.6252129537041853  1.0000
  O   O17       1.0  0.4254354223653464  0.6529911937181225  0.2869446605529617  1.0000
  O   O18       1.0  0.42427455406803455  0.3484195186833858  0.786128364655653  1.0000
  O   O19       1.0  0.9254708279590247  0.1529634189121936  0.2869609524317909  1.0000
  O   O20       1.0  0.9207232753065496  0.8482161587862792  0.7870134461435896  1.0000
  O   O21       1.0  0.3000548841635791  0.1535212360867391  0.4444491254680756  1.0000
  O   O22       1.0  0.2995467463837471  0.8481412956242594  0.9425503090580846  1.0000
  O   O23       1.0  0.7935633207347123  0.6457848236349335  0.4376856073749167  1.0000
  O   O24       1.0  0.7964106282139908  0.3485973878320152  0.9427759449986723  1.0000
  O   O25       1.0  0.5334782719679154  0.8917438888774002  0.6208902175930575  1.0000
  O   O26       1.0  0.5438085352833824  0.10984221678057081  0.12480665456936889  1.0000
  O   O27       1.0  0.03877753211092029  0.3806047367435212  0.624330391587108  1.0000
  O   O28       1.0  0.04394211776813249  0.6088518818562108  0.1238220812197355  1.0000
  O   O29       1.0  0.6198683071821661  0.7950963606148137  0.30223609953681313  1.0000
  O   O30       1.0  0.6141153767128031  0.1995970644180929  0.7965653295264374  1.0000
  O   O31       1.0  0.12134492304206648  0.2946737250656284  0.30614461242642216  1.0000
  O   O32       1.0  0.11118995786802799  0.7116571307261239  0.7935360071100916  1.0000
  O   O33       1.0  0.5866297403299043  0.9703685437007579  0.4420644683174828  1.0000
  O   O34       1.0  0.5860700131047948  0.027586011412417104  0.9349311956936788  1.0000
  O   O35       1.0  0.0910239894261053  0.47152111734808955  0.44433440082486436  1.0000
  O   O36       1.0  0.08317017514589507  0.5308849285973097  0.9357941864089979  1.0000
  O   O37       1.0  0.6732852927387256  0.13401564259583412  0.3065620412938941  1.0000
  O   O38       1.0  0.6786821175848202  0.8649345335144147  0.8066271095842907  1.0000
  O   O39       1.0  0.17170143255020778  0.633280298024168  0.3048057648634099  1.0000
  O   O40       1.0  0.17713760614449817  0.35650994982587036  0.7966376008449245  1.0000
  O   O41       1.0  0.6626651203899812  0.13384023552584523  0.6094635885878574  1.0000
  O   O42       1.0  0.664490654264604  0.8478010978477002  0.1100753962443193  1.0000
  O   O43       1.0  0.16408443417113716  0.6336223978575292  0.6091789972735241  1.0000
  O   O44       1.0  0.1640439228854902  0.34811512173996567  0.10922503303061151  1.0000
  O   O45       1.0  0.6697821370712019  0.3826628864047876  0.45206283798145824  1.0000
  O   O46       1.0  0.6705513039833022  0.6159295930181656  0.9537734744196484  1.0000
  O   O47       1.0  0.1767705978376384  0.8839176398870876  0.4548299802197917  1.0000
  O   O48       1.0  0.1745074270060982  0.11475861920484222  0.9548705844598331  1.0000
  O   O49       1.0  0.2952895085999856  0.3838427295558162  0.2772400880176135  1.0000
  O   O50       1.0  0.299122252630191  0.6245452726009973  0.7828954396945632  1.0000
  O   O51       1.0  0.7965538737120709  0.883959679601773  0.2825632765204347  1.0000
  O   O52       1.0  0.7919741064232965  0.12458830406081492  0.7862423418731623  1.0000
  O   O53       1.0  0.5019926178922701  0.3432365681560157  0.2719298931493697  1.0000
  O   O54       1.0  0.5020362630573699  0.6564251977027739  0.7724981471005917  1.0000
  O   O55       1.0  0.0019385329260401987  0.8432957903868116  0.2718287570567597  1.0000
  O   O56       1.0  0.9999174867486927  0.15653420818738084  0.7765724062947115  1.0000
  O   O57       1.0  0.45839306650806577  0.0027096689561006003  0.2921546570075719  1.0000
  O   O58       1.0  0.4534286461469819  0.9914802463660805  0.7897255200920839  1.0000
  O   O59       1.0  0.9601374799717489  0.503846020292535  0.2926221749700062  1.0000
  O   O60       1.0  0.9499568548955536  0.48707736339687807  0.793336878666281  1.0000
  O   O61       1.0  0.5418256730997157  0.6450721962818592  0.46905433444025135  1.0000
  O   O62       1.0  0.5399737951075991  0.3538599250751843  0.9679112377015002  1.0000
  O   O63       1.0  0.041862935265236  0.1452004942110747  0.46902022879991273  1.0000
  O   O64       1.0  0.039819801505281284  0.8549895651506816  0.968652610077342  1.0000
  O   O65       1.0  0.4139663905173591  0.8478186705914652  0.1297345493448603  1.0000
  O   O66       1.0  0.40652541931248715  0.1610873964157591  0.6297944255836114  1.0000
  O   O67       1.0  0.9128999322326123  0.3482832794405866  0.1294920404048838  1.0000
  O   O68       1.0  0.911755227183704  0.6526096841980191  0.6326685369867134  1.0000
  O   O69       1.0  0.7716268544990683  0.9910256267646318  0.4633209241773741  1.0000
  O   O70       1.0  0.7676506285231851  0.018614868107384597  0.9701855167451255  1.0000
  O   O71       1.0  0.2792625955170251  0.4860046905109102  0.45789983689375896  1.0000
  O   O72       1.0  0.26728866311587035  0.5181756804640899  0.970851767295791  1.0000
  O   O73       1.0  0.6068057089668741  0.4555053422255568  0.6303512710276494  1.0000
  O   O74       1.0  0.6041859849526787  0.5356262871230868  0.1298496835727505  1.0000
  O   O75       1.0  0.11106139754232909  0.9573797559611067  0.631761110076468  1.0000
  O   O76       1.0  0.10730188054976958  0.0280480675884007  0.12939842782309088  1.0000
  O   O77       1.0  0.37517526104390697  0.839679257217611  0.43248761911624456  1.0000
  O   O78       1.0  0.3747958923793533  0.1604855739913731  0.9321483547345153  1.0000
  O   O79       1.0  0.8749138590780347  0.3390444972392714  0.4321332658496572  1.0000
  O   O80       1.0  0.8673467609472779  0.6652253234409998  0.9293578491459797  1.0000
  O   O81       1.0  0.7189476698214178  0.8051176559700366  0.610621209985112  1.0000
  O   O82       1.0  0.7323090703913238  0.19933523018657703  0.1126681857699623  1.0000
  O   O83       1.0  0.22716825347732336  0.3119865145921922  0.60550078667125  1.0000
  O   O84       1.0  0.23187839153244028  0.7049483406348501  0.109779721614494  1.0000
  Li  Li1       1.0  0.6145679367270062  0.6683549666415445  0.7029521357109445  1.0000
  Li  Li2       1.0  0.6143487392230611  0.30679028639906386  0.1955020191416921  1.0000
  Li  Li3       1.0  0.11403514526661948  0.1698609039400409  0.7123308527064012  1.0000
  Li  Li4       1.0  0.11284576315548378  0.8021047049367169  0.19441148191322807  1.0000
  Li  Li5       1.0  0.3387301074143351  0.3171735762252581  0.0346793527824758  1.0000
  Li  Li6       1.0  0.33541576671535717  0.6829612866163758  0.5307129095416485  1.0000
  Li  Li7       1.0  0.8432062101702584  0.8169384154691245  0.0334553596135763  1.0000
  Li  Li8       1.0  0.8399447733833013  0.1787772871207238  0.5311022045779765  1.0000
  Li  Li9       1.0  0.5252955018579968  0.17832945059745953  0.37489347863045447  1.0000
  Li  Li10      1.0  0.5170653179502551  0.8201540649343428  0.8748713046646657  1.0000
  Li  Li11      1.0  0.025464934137381996  0.6788307125583231  0.37504079846475247  1.0000
  Li  Li12      1.0  0.012731661834422422  0.3217734081785864  0.8782472649088932  1.0000
  Li  Li13      1.0  0.3106963674882479  0.785775804118039  0.2220452033279372  1.0000
  Li  Li14      1.0  0.0410769995372533  0.2494983438098046  0.1441462253740582  1.0000
  Li  Li15      1.0  0.810362327170793  0.2848254565709496  0.2220155251995592  1.0000
  Li  Li16      1.0  0.5316083475226208  0.2671466770776476  0.670533199694148  1.0000
  Li  Li17      1.0  0.030291996842692  0.7762534624469027  0.6763657528188105  1.0000
  Li  Li18      1.0  0.8025409339011489  0.7328888227224937  0.730448180145217  1.0000
  Li  Li19      1.0  0.5419557246211895  0.7481989414201138  0.15521589112781697  1.0000
  Li  Li20      1.0  0.29168161348746924  0.24868532102492946  0.7373443820709226  1.0000
