# generated using pymatgen
data_Li6PS5Cl
_symmetry_space_group_name_H-M   'P 1'
_cell_length_a   6.96372900
_cell_length_b   6.96372900
_cell_length_c   6.96372900
_cell_angle_alpha   90.00000000
_cell_angle_beta   60.00000000
_cell_angle_gamma   120.00000000
_symmetry_Int_Tables_number   1
_chemical_formula_structural   Li6PS5Cl
_chemical_formula_sum   'Li6 P1 S5 Cl1'
_cell_volume   238.78694981
_cell_formula_units_Z   1
loop_
 _symmetry_equiv_pos_site_id
 _symmetry_equiv_pos_as_xyz
  1  'x, y, z'
loop_
 _atom_type_symbol
 _atom_type_oxidation_number
  Li+  1.0
  P5+  5.0
  S2-  -2.0
  Cl-  -1.0
loop_
 _atom_site_type_symbol
 _atom_site_label
 _atom_site_symmetry_multiplicity
 _atom_site_fract_x
 _atom_site_fract_y
 _atom_site_fract_z
 _atom_site_occupancy
  Li+  Li0  1  0.35419996  0.02570003  0.02570003  1
  Li+  Li1  1  0.64580004  0.62010002  0.02570003  1
  Li+  Li2  1  0.94859995  0.32849993  0.02570003  1
  Li+  Li3  1  0.64580004  0.62010002  0.32849993  1
  Li+  Li4  1  0.05140005  0.02570003  0.32849993  1
  Li+  Li5  1  0.64580004  0.02570003  0.32849993  1
  P5+  P6  1  0.00000000  0.50000000  0.50000000  1.0
  S2-  S7  1  0.75880000  0.13820000  0.62060000  1.0
  S2-  S8  1  0.75880000  0.62060000  0.62060000  1.0
  S2-  S9  1  0.24120000  0.62060000  0.62060000  1.0
  S2-  S10  1  0.24120000  0.62060000  0.13820000  1.0
  S2-  S11  1  0.50000000  0.25000000  0.25000000  1
  Cl-  Cl12  1  0.00000000  0.00000000  0.00000000  1
