data_image0
_chemical_formula_structural       Fe12V24O84Li12
_chemical_formula_sum              "Fe12 V24 O84 Li12"
_cell_length_a       13.463
_cell_length_b       8.1882
_cell_length_c       14.386000000000001
_cell_angle_alpha    90.0
_cell_angle_beta     96.547
_cell_angle_gamma    90.0

_space_group_name_H-M_alt    "P 1"
_space_group_IT_number       1

loop_
  _space_group_symop_operation_xyz
  'x, y, z'

loop_
  _atom_site_type_symbol
  _atom_site_label
  _atom_site_symmetry_multiplicity
  _atom_site_fract_x
  _atom_site_fract_y
  _atom_site_fract_z
  _atom_site_occupancy
  Fe  Fe1       1.0  0.49608417340374383  0.8017167462670348  0.37055666668649606  1.0000
  Fe  Fe2       1.0  0.49608417340374383  0.19828325373296615  0.870556666686496  1.0000
  Fe  Fe3       1.0  0.9960841734037427  0.3017167462670347  0.37055666668649606  1.0000
  Fe  Fe4       1.0  0.9960841734037429  0.6982832537329651  0.8705566666864962  1.0000
  Fe  Fe5       1.0  0.8495183242580214  0.8207728627236726  0.5402402256954464  1.0000
  Fe  Fe6       1.0  0.8495183242580217  0.17922713727632755  0.04024022569544651  1.0000
  Fe  Fe7       1.0  0.34951832425802215  0.320772862723672  0.5402402256954465  1.0000
  Fe  Fe8       1.0  0.34951832425802176  0.6792271372763276  0.04024022569544652  1.0000
  Fe  Fe9       1.0  0.7006913865529147  0.31028264667029937  0.7098268368719648  1.0000
  Fe  Fe10      1.0  0.7006913865529147  0.6897173533297003  0.20982683687196405  1.0000
  Fe  Fe11      1.0  0.20069138655291427  0.8102826466702998  0.7098268368719648  1.0000
  Fe  Fe12      1.0  0.20069138655291408  0.18971735332970016  0.20982683687196405  1.0000
  V   V1        1.0  0.42448343061194593  0.029155608350836883  0.17785351393728793  1.0000
  V   V2        1.0  0.4244834306119462  0.9708443916491631  0.6778535139372883  1.0000
  V   V3        1.0  0.924483430611947  0.529155608350837  0.17785351393728802  1.0000
  V   V4        1.0  0.9244834306119473  0.47084439164916375  0.6778535139372883  1.0000
  V   V5        1.0  0.703267699187451  0.9595444970771428  0.3546804383315127  1.0000
  V   V6        1.0  0.703267699187451  0.04045550292285813  0.854680438331513  1.0000
  V   V7        1.0  0.20326769918745022  0.4595444970771423  0.3546804383315127  1.0000
  V   V8        1.0  0.2032676991874503  0.5404555029228573  0.8546804383315131  1.0000
  V   V9        1.0  0.5723380325370316  0.45376187085368425  0.514560123814771  1.0000
  V   V10       1.0  0.5723380325370316  0.5462381291463152  0.01456012381477087  1.0000
  V   V11       1.0  0.07233803253703171  0.9537618708536848  0.514560123814771  1.0000
  V   V12       1.0  0.07233803253703172  0.04623812914631589  0.014560123814770865  1.0000
  V   V13       1.0  0.6294539625313997  0.952120478693682  0.5677008585914426  1.0000
  V   V14       1.0  0.6294539625313991  0.04787952130631855  0.06770085859144191  1.0000
  V   V15       1.0  0.1294539625313997  0.45212047869368105  0.5677008585914425  1.0000
  V   V16       1.0  0.12945396253139974  0.5478795213063181  0.06770085859144194  1.0000
  V   V17       1.0  0.27343621404700824  0.9662355719364049  0.402887074082597  1.0000
  V   V18       1.0  0.27343621404700835  0.0337644280635969  0.902887074082597  1.0000
  V   V19       1.0  0.7734362140470085  0.46623557193640297  0.4028870740825969  1.0000
  V   V20       1.0  0.7734362140470085  0.5337644280635949  0.9028870740825973  1.0000
  V   V21       1.0  0.408340652444341  0.4595157173267639  0.23916413539085865  1.0000
  V   V22       1.0  0.40834065244434103  0.5404842826732364  0.7391641353908586  1.0000
  V   V23       1.0  0.9083406524443396  0.959515717326764  0.2391641353908586  1.0000
  V   V24       1.0  0.90834065244434  0.04048428267323658  0.7391641353908586  1.0000
  O   O1        1.0  0.4774840989398139  0.3152332037765081  0.4816390997586946  1.0000
  O   O2        1.0  0.4774840989398139  0.684766796223491  0.9816390997586939  1.0000
  O   O3        1.0  0.9774840989398148  0.8152332037765091  0.48163909975869473  1.0000
  O   O4        1.0  0.977484098939815  0.1847667962234922  0.9816390997586939  1.0000
  O   O5        1.0  0.3227264889216478  0.15439915794202083  0.14370035608675208  1.0000
  O   O6        1.0  0.32272648892164835  0.8456008420579798  0.643700356086752  1.0000
  O   O7        1.0  0.8227264889216482  0.6543991579420205  0.14370035608675208  1.0000
  O   O8        1.0  0.8227264889216483  0.34560084205797903  0.643700356086752  1.0000
  O   O9        1.0  0.2366839448582934  0.9862296637468386  0.2841201595272858  1.0000
  O   O10       1.0  0.2366839448582938  0.013770336253162067  0.7841201595272874  1.0000
  O   O11       1.0  0.7366839448582919  0.48622966374683874  0.2841201595272859  1.0000
  O   O12       1.0  0.7366839448582923  0.5137703362531625  0.7841201595272873  1.0000
  O   O13       1.0  0.3975026290391517  0.48675875610338853  0.11787452092986109  1.0000
  O   O14       1.0  0.39750262903915184  0.5132412438966111  0.6178745209298614  1.0000
  O   O15       1.0  0.8975026290391521  0.9867587561033874  0.11787452092986109  1.0000
  O   O16       1.0  0.8975026290391522  0.013241243896611177  0.6178745209298613  1.0000
  O   O17       1.0  0.42093577565255413  0.6455461244417247  0.2914841899028478  1.0000
  O   O18       1.0  0.4209357756525543  0.35445387555827507  0.7914841899028489  1.0000
  O   O19       1.0  0.9209357756525547  0.14554612444172535  0.29148418990284797  1.0000
  O   O20       1.0  0.9209357756525551  0.8544538755582751  0.7914841899028487  1.0000
  O   O21       1.0  0.2918090951397283  0.15545268796581688  0.44851017923392394  1.0000
  O   O22       1.0  0.29180909513972797  0.8445473120341824  0.9485101792339217  1.0000
  O   O23       1.0  0.7918090951397281  0.6554526879658179  0.44851017923392394  1.0000
  O   O24       1.0  0.7918090951397277  0.3445473120341834  0.9485101792339217  1.0000
  O   O25       1.0  0.5281885097203902  0.8804941634893804  0.6254811605564516  1.0000
  O   O26       1.0  0.5281885097203904  0.11950583651062008  0.12548116055645303  1.0000
  O   O27       1.0  0.028188509720390057  0.38049416348938025  0.6254811605564516  1.0000
  O   O28       1.0  0.028188509720390192  0.6195058365106196  0.125481160556453  1.0000
  O   O29       1.0  0.6200538400854155  0.7905609297453106  0.3039048813335998  1.0000
  O   O30       1.0  0.6200538400854155  0.2094390702546889  0.8039048813336003  1.0000
  O   O31       1.0  0.12005384008541524  0.2905609297453112  0.3039048813335998  1.0000
  O   O32       1.0  0.12005384008541535  0.7094390702546894  0.8039048813335999  1.0000
  O   O33       1.0  0.5911146214721278  0.9702413049483046  0.44315719145741833  1.0000
  O   O34       1.0  0.5911146214721278  0.02975869505169486  0.9431571914574174  1.0000
  O   O35       1.0  0.0911146214721279  0.47024130494830535  0.4431571914574184  1.0000
  O   O36       1.0  0.09111462147212787  0.5297586950516955  0.9431571914574173  1.0000
  O   O37       1.0  0.6739317362846916  0.13704495847997883  0.304718565319411  1.0000
  O   O38       1.0  0.6739317362846928  0.8629550415200212  0.8047185653194124  1.0000
  O   O39       1.0  0.17393173628469305  0.6370449584799787  0.30471856531941127  1.0000
  O   O40       1.0  0.1739317362846932  0.3629550415200215  0.8047185653194124  1.0000
  O   O41       1.0  0.6621115966614666  0.138971582292327  0.6109093006684413  1.0000
  O   O42       1.0  0.6621115966614665  0.8610284177076729  0.11090930066844196  1.0000
  O   O43       1.0  0.16211159666146693  0.6389715822923265  0.6109093006684413  1.0000
  O   O44       1.0  0.16211159666146704  0.3610284177076736  0.11090930066844198  1.0000
  O   O45       1.0  0.6729059192697612  0.3724118095663585  0.4565360932616228  1.0000
  O   O46       1.0  0.6729059192697605  0.6275881904336441  0.9565360932616217  1.0000
  O   O47       1.0  0.1729059192697609  0.872411809566356  0.4565360932616228  1.0000
  O   O48       1.0  0.17290591926976098  0.12758819043364233  0.9565360932616215  1.0000
  O   O49       1.0  0.2952546762721055  0.36802176488644717  0.2799150630445578  1.0000
  O   O50       1.0  0.29525467627210567  0.6319782351135526  0.7799150630445572  1.0000
  O   O51       1.0  0.7952546762721049  0.8680217648864478  0.2799150630445578  1.0000
  O   O52       1.0  0.7952546762721049  0.13197823511355297  0.7799150630445572  1.0000
  O   O53       1.0  0.5088959876494272  0.3442349381546024  0.27386369288142687  1.0000
  O   O54       1.0  0.5088959876494273  0.6557650618453983  0.7738636928814282  1.0000
  O   O55       1.0  0.00889598764942644  0.8442349381546012  0.2738636928814268  1.0000
  O   O56       1.0  0.008895987649426527  0.15576506184539832  0.7738636928814282  1.0000
  O   O57       1.0  0.4514959488530454  0.007737413698850393  0.29756094142615247  1.0000
  O   O58       1.0  0.4514959488530453  0.992262586301149  0.7975609414261517  1.0000
  O   O59       1.0  0.9514959488530452  0.5077374136988498  0.2975609414261527  1.0000
  O   O60       1.0  0.9514959488530452  0.4922625863011504  0.7975609414261517  1.0000
  O   O61       1.0  0.543361838651417  0.6433431357311904  0.47154406938208787  1.0000
  O   O62       1.0  0.5433618386514169  0.3566568642688106  0.971544069382087  1.0000
  O   O63       1.0  0.04336183865141688  0.1433431357311899  0.4715440693820881  1.0000
  O   O64       1.0  0.043361838651416726  0.8566568642688103  0.9715440693820873  1.0000
  O   O65       1.0  0.4061717415903487  0.8428260444097309  0.130561282869435  1.0000
  O   O66       1.0  0.40617174159034874  0.15717395559027  0.6305612828694355  1.0000
  O   O67       1.0  0.9061717415903475  0.34282604440973075  0.13056128286943508  1.0000
  O   O68       1.0  0.9061717415903474  0.6571739555902693  0.6305612828694354  1.0000
  O   O69       1.0  0.785246184966794  0.9954734132276656  0.45721921474999766  1.0000
  O   O70       1.0  0.7852461849667942  0.004526586772336318  0.9572192147499973  1.0000
  O   O71       1.0  0.2852461849667943  0.4954734132276635  0.45721921474999766  1.0000
  O   O72       1.0  0.28524618496679427  0.5045265867723365  0.9572192147499973  1.0000
  O   O73       1.0  0.6118425279736249  0.4640747106468442  0.633470740937287  1.0000
  O   O74       1.0  0.6118425279736253  0.5359252893531572  0.1334707409372868  1.0000
  O   O75       1.0  0.11184252797362465  0.9640747106468429  0.633470740937287  1.0000
  O   O76       1.0  0.11184252797362484  0.035925289353156586  0.13347074093728678  1.0000
  O   O77       1.0  0.3757369070368128  0.8428540838701369  0.43786179013695903  1.0000
  O   O78       1.0  0.3757369070368128  0.15714591612986312  0.9378617901369587  1.0000
  O   O79       1.0  0.8757369070368135  0.3428540838701376  0.437861790136959  1.0000
  O   O80       1.0  0.8757369070368135  0.6571459161298623  0.9378617901369587  1.0000
  O   O81       1.0  0.7195138780357659  0.8108827573237929  0.6021333701598631  1.0000
  O   O82       1.0  0.7195138780357658  0.18911724267620675  0.10213337015986271  1.0000
  O   O83       1.0  0.21951387803576564  0.31088275732379334  0.6021333701598631  1.0000
  O   O84       1.0  0.21951387803576522  0.6891172426762073  0.10213337015986271  1.0000
  Li  Li1       1.0  0.6387227682850442  0.675644270023766  0.7122657333803472  1.0000
  Li  Li2       1.0  0.6387227682850423  0.32435572997623324  0.21226573338034777  1.0000
  Li  Li3       1.0  0.13872276828504365  0.17564427002376673  0.7122657333803473  1.0000
  Li  Li4       1.0  0.1387227682850438  0.8243557299762339  0.21226573338034788  1.0000
  Li  Li5       1.0  0.33566238832496675  0.310915070134514  0.03491428052215516  1.0000
  Li  Li6       1.0  0.3356623883249665  0.6890849298654851  0.5349142805221548  1.0000
  Li  Li7       1.0  0.8356623883249656  0.8109150701345148  0.034914280522155165  1.0000
  Li  Li8       1.0  0.8356623883249659  0.18908492986548653  0.5349142805221548  1.0000
  Li  Li9       1.0  0.5304326723847296  0.18339528676601494  0.3759837771792864  1.0000
  Li  Li10      1.0  0.5304326723847297  0.8166047132339848  0.875983777179287  1.0000
  Li  Li11      1.0  0.030432672384730068  0.6833952867660154  0.3759837771792864  1.0000
  Li  Li12      1.0  0.030432672384730058  0.316604713233985  0.875983777179287  1.0000
