data_image0
_chemical_formula_structural       Li21PSn2P3S24
_chemical_formula_sum              "Li21 P4 Sn2 S24"
_cell_length_a       9.91455124965844
_cell_length_b       9.710677430004623
_cell_length_c       15.676148413668072
_cell_angle_alpha    83.60784968745737
_cell_angle_beta     83.58613803208026
_cell_angle_gamma    83.78763261030348

_space_group_name_H-M_alt    "P 1"
_space_group_IT_number       1

loop_
  _space_group_symop_operation_xyz
  'x, y, z'

loop_
  _atom_site_type_symbol
  _atom_site_label
  _atom_site_symmetry_multiplicity
  _atom_site_fract_x
  _atom_site_fract_y
  _atom_site_fract_z
  _atom_site_occupancy
  Li  Li1       1.0  0.24742657816432814  0.2327137117331507  0.7739897483386629  1.0000
  Li  Li2       1.0  0.29586247476550226  0.7240473333484767  0.24400606522215842  1.0000
  Li  Li3       1.0  0.24402111660831757  0.7111358993608586  0.7389658832729863  1.0000
  Li  Li4       1.0  0.3048335023779584  0.35505661210757444  0.17357849039981144  1.0000
  Li  Li5       1.0  0.7707134777017852  0.28577910098469594  0.6342673868329131  1.0000
  Li  Li6       1.0  0.6843982408072703  0.5557415547677662  0.22446603203164597  1.0000
  Li  Li7       1.0  0.4783505381125002  0.008283648700331077  0.45895474044495127  1.0000
  Li  Li8       1.0  0.4368209225144778  0.9271195766491824  0.9545280337346108  1.0000
  Li  Li9       1.0  0.022683319964121682  0.5297563004844149  0.045286478558123025  1.0000
  Li  Li10      1.0  0.022280785455787825  0.49550420364078285  0.5981234035884784  1.0000
  Li  Li11      1.0  0.24040703826055818  0.2211173365494475  0.479945775712623  1.0000
  Li  Li12      1.0  0.688540619009165  0.202605052611169  0.9770165661232766  1.0000
  Li  Li13      1.0  0.7249432748017499  0.8093876427881457  0.5390798096136588  1.0000
  Li  Li14      1.0  0.8210119322225405  0.5557163344100277  0.8826112973067562  1.0000
  Li  Li15      1.0  0.7316317077574379  0.18759011387958568  0.3553436272123816  1.0000
  Li  Li16      1.0  0.16374917928598023  0.9011387526238075  0.6093390564735605  1.0000
  Li  Li17      1.0  0.35097758647574895  0.1887735552680329  0.09974356114656527  1.0000
  Li  Li18      1.0  0.6662850130031948  0.8942706156900934  0.9940159826799456  1.0000
  Li  Li19      1.0  0.5892085165232664  0.4778681594360716  0.7558015714724236  1.0000
  Li  Li20      1.0  0.9891644629676082  0.05172460645130541  0.2631742372072641  1.0000
  Li  Li21      1.0  0.005519610193528768  0.019279453782634445  0.7240896628751292  1.0000
  P   P1        1.0  0.471890581266287  0.9918921686534473  0.2858255622977006  1.0000
  Sn  Sn1       1.0  0.5522298578707896  0.06500679437579011  0.7162775557388803  1.0000
  Sn  Sn2       1.0  0.012078236154388331  0.5109968073718185  0.30070058199694927  1.0000
  P   P2        1.0  0.9251196245758254  0.42413686716875565  0.782034382116176  1.0000
  P   P3        1.0  0.46435384793193424  0.5329257117387505  0.9661056224467929  1.0000
  P   P4        1.0  0.021403104344230185  0.9820037468320745  0.5007823659457485  1.0000
  S   S1        1.0  0.5056680983695979  0.7358176878906327  0.9066620767710367  1.0000
  S   S2        1.0  0.770110536159546  0.9647629477543362  0.426384737306075  1.0000
  S   S3        1.0  0.4985925605760054  0.3266864561123153  0.9038826732287764  1.0000
  S   S4        1.0  0.20676845278667239  0.017436623271711412  0.3991853680692653  1.0000
  S   S5        1.0  0.008086899111541269  0.7712503931834546  0.5855728380231542  1.0000
  S   S6        1.0  0.3729366319172158  0.5291106393430642  0.10737149620648578  1.0000
  S   S7        1.0  0.02777242211583878  0.1903034934921395  0.5909746136655408  1.0000
  S   S8        1.0  0.7429001266297978  0.5474843270043069  0.08100557163400435  1.0000
  S   S9        1.0  0.5052905897120712  0.8568312029923529  0.6403544087837232  1.0000
  S   S10       1.0  0.7117380617429951  0.9936384642005468  0.09444171634247996  1.0000
  S   S11       1.0  0.4995922059125778  0.1804974880184881  0.576528445922584  1.0000
  S   S12       1.0  0.3235159791291609  0.028871542822193726  0.1890026517564641  1.0000
  S   S13       1.0  0.084984653032629  0.8036187151858236  0.846376822334605  1.0000
  S   S14       1.0  0.16454450604239426  0.47408985838736023  0.4050503939574534  1.0000
  S   S15       1.0  0.9752239170760536  0.23628247782732273  0.8735425089705954  1.0000
  S   S16       1.0  0.7695462294628224  0.5492228752588443  0.3649813788820474  1.0000
  S   S17       1.0  0.5857425093606476  0.1381103234286786  0.2142684540939138  1.0000
  S   S18       1.0  0.32303141507685007  0.024884103363806035  0.7652316681803222  1.0000
  S   S19       1.0  0.6105905282174696  0.8439032103461727  0.20282672795911058  1.0000
  S   S20       1.0  0.63931062559419  0.90550127196349  0.815855490711989  1.0000
  S   S21       1.0  0.9678507862563015  0.287427739882429  0.25314415208416036  1.0000
  S   S22       1.0  0.7558081913703031  0.5985863003526043  0.7599611738682467  1.0000
  S   S23       1.0  0.8396894917177968  0.6488670104442619  0.2382220075473455  1.0000
  S   S24       1.0  0.11359872693452297  0.49544218597826595  0.7099199608900972  1.0000
