data_image0
_chemical_formula_structural       P18O72Li6Ge12
_chemical_formula_sum              "P18 O72 Li6 Ge12"
_cell_length_a       8.394236677733774
_cell_length_b       8.394236677733776
_cell_length_c       20.683083292727595
_cell_angle_alpha    90.0
_cell_angle_beta     90.0
_cell_angle_gamma    119.99999999999999

_space_group_name_H-M_alt    "P 1"
_space_group_IT_number       1

loop_
  _space_group_symop_operation_xyz
  'x, y, z'

loop_
  _atom_site_type_symbol
  _atom_site_label
  _atom_site_symmetry_multiplicity
  _atom_site_fract_x
  _atom_site_fract_y
  _atom_site_fract_z
  _atom_site_occupancy
  P   P1        1.0  0.2883371552759212  1.378882784801429e-28  0.2499999999999999  1.0000
  P   P2        1.0  0.7116628447240789  0.7116628447240785  0.2499999999999999  1.0000
  P   P3        1.0  2.774005165882682e-16  0.28833715527592146  0.2499999999999999  1.0000
  P   P4        1.0  0.2883371552759215  0.28833715527592135  0.7499999999999997  1.0000
  P   P5        1.0  4.567386130184672e-16  0.7116628447240783  0.7499999999999997  1.0000
  P   P6        1.0  0.711662844724078  3.657081182532224e-28  0.7499999999999997  1.0000
  P   P7        1.0  0.9550038219425878  0.3333333333333329  0.5833333333333326  1.0000
  P   P8        1.0  0.37832951139074505  0.04499617805741202  0.5833333333333326  1.0000
  P   P9        1.0  0.666666666666667  0.6216704886092547  0.5833333333333326  1.0000
  P   P10       1.0  0.9550038219425878  0.6216704886092547  0.08333333333333333  1.0000
  P   P11       1.0  0.6666666666666665  0.04499617805741195  0.08333333333333333  1.0000
  P   P12       1.0  0.37832951139074505  0.333333333333333  0.08333333333333331  1.0000
  P   P13       1.0  0.6216704886092548  0.6666666666666659  0.9166666666666664  1.0000
  P   P14       1.0  0.04499617805741209  0.3783295113907451  0.9166666666666664  1.0000
  P   P15       1.0  0.33333333333333404  0.9550038219425884  0.9166666666666664  1.0000
  P   P16       1.0  0.6216704886092553  0.9550038219425884  0.41666666666666635  1.0000
  P   P17       1.0  0.33333333333333337  0.3783295113907451  0.4166666666666663  1.0000
  P   P18       1.0  0.04499617805741217  0.666666666666666  0.4166666666666663  1.0000
  O   O1        1.0  0.19543521148687862  0.012835196220600507  0.31194314789142097  1.0000
  O   O2        1.0  0.8173999847337218  0.8045647885131209  0.31194314789142097  1.0000
  O   O3        1.0  0.9871648037793992  0.1826000152662782  0.31194314789142097  1.0000
  O   O4        1.0  0.19543521148687867  0.18260001526627812  0.8119431478914226  1.0000
  O   O5        1.0  0.9871648037793985  0.8045647885131207  0.8119431478914226  1.0000
  O   O6        1.0  0.8173999847337218  0.012835196220600482  0.8119431478914226  1.0000
  O   O7        1.0  0.8045647885131214  0.9871648037793986  0.6880568521085781  1.0000
  O   O8        1.0  0.18260001526627798  0.19543521148687856  0.6880568521085781  1.0000
  O   O9        1.0  0.01283519622060145  0.8173999847337223  0.6880568521085781  1.0000
  O   O10       1.0  0.804564788513122  0.8173999847337224  0.18805685210857884  1.0000
  O   O11       1.0  0.012835196220600536  0.19543521148687873  0.18805685210857886  1.0000
  O   O12       1.0  0.18260001526627812  0.9871648037793987  0.18805685210857884  1.0000
  O   O13       1.0  0.8621018781535448  0.34616852955393373  0.6452764812247543  1.0000
  O   O14       1.0  0.48406665140038807  0.13789812184645464  0.6452764812247543  1.0000
  O   O15       1.0  0.6538314704460657  0.5159333485996115  0.6452764812247543  1.0000
  O   O16       1.0  0.862101878153545  0.5159333485996116  0.14527648122475462  1.0000
  O   O17       1.0  0.6538314704460656  0.13789812184645467  0.14527648122475464  1.0000
  O   O18       1.0  0.4840666514003883  0.3461685295539338  0.14527648122475464  1.0000
  O   O19       1.0  0.47123145517978776  0.32049813711273256  0.02139018544191213  1.0000
  O   O20       1.0  0.8492666819329442  0.5287685448202121  0.021390185441912134  1.0000
  O   O21       1.0  0.6795018628872669  0.15073331806705512  0.02139018544191213  1.0000
  O   O22       1.0  0.47123145517978776  0.15073331806705506  0.5213901854419116  1.0000
  O   O23       1.0  0.6795018628872674  0.5287685448202121  0.5213901854419116  1.0000
  O   O24       1.0  0.8492666819329442  0.32049813711273256  0.5213901854419116  1.0000
  O   O25       1.0  0.5287685448202123  0.6795018628872672  0.9786098145580876  1.0000
  O   O26       1.0  0.15073331806705517  0.4712314551797878  0.9786098145580876  1.0000
  O   O27       1.0  0.3204981371127328  0.8492666819329441  0.9786098145580876  1.0000
  O   O28       1.0  0.5287685448202118  0.8492666819329441  0.4786098145580878  1.0000
  O   O29       1.0  0.3204981371127328  0.4712314551797879  0.4786098145580878  1.0000
  O   O30       1.0  0.15073331806705526  0.6795018628872672  0.4786098145580878  1.0000
  O   O31       1.0  0.1378981218464544  0.6538314704460655  0.3547235187752454  1.0000
  O   O32       1.0  0.5159333485996117  0.8621018781535454  0.3547235187752454  1.0000
  O   O33       1.0  0.3461685295539338  0.4840666514003881  0.3547235187752454  1.0000
  O   O34       1.0  0.13789812184645475  0.48406665140038807  0.8547235187752459  1.0000
  O   O35       1.0  0.3461685295539342  0.8621018781535454  0.8547235187752459  1.0000
  O   O36       1.0  0.5159333485996114  0.6538314704460654  0.8547235187752459  1.0000
  O   O37       1.0  0.025152969675227146  0.8406214415781866  0.4187372799612414  1.0000
  O   O38       1.0  0.8154684719029607  0.9748470303247737  0.41873727996124155  1.0000
  O   O39       1.0  0.15937855842181314  0.1845315280970394  0.4187372799612414  1.0000
  O   O40       1.0  0.02515296967522625  0.18453152809703935  0.9187372799612405  1.0000
  O   O41       1.0  0.15937855842181373  0.9748470303247734  0.9187372799612405  1.0000
  O   O42       1.0  0.8154684719029605  0.8406214415781864  0.9187372799612405  1.0000
  O   O43       1.0  0.9748470303247732  0.1593785584218132  0.5812627200387583  1.0000
  O   O44       1.0  0.18453152809703938  0.025152969675226323  0.5812627200387583  1.0000
  O   O45       1.0  0.8406214415781865  0.81546847190296  0.5812627200387583  1.0000
  O   O46       1.0  0.9748470303247743  0.8154684719029602  0.08126272003875848  1.0000
  O   O47       1.0  0.8406214415781863  0.02515296967522638  0.08126272003875848  1.0000
  O   O48       1.0  0.18453152809703963  0.15937855842181328  0.08126272003875848  1.0000
  O   O49       1.0  0.6918196363418933  0.17395477491152003  0.7520706132945746  1.0000
  O   O50       1.0  0.48213513856962686  0.3081803636581071  0.7520706132945745  1.0000
  O   O51       1.0  0.826045225088481  0.5178648614303735  0.7520706132945746  1.0000
  O   O52       1.0  0.6918196363418926  0.5178648614303735  0.25207061329457486  1.0000
  O   O53       1.0  0.8260452250884799  0.308180363658107  0.25207061329457486  1.0000
  O   O54       1.0  0.48213513856962653  0.17395477491151995  0.25207061329457486  1.0000
  O   O55       1.0  0.6415136969914397  0.4927118917551464  0.9145960533720912  1.0000
  O   O56       1.0  0.8511981947637063  0.35848630300855955  0.914596053372091  1.0000
  O   O57       1.0  0.5072881082448527  0.14880180523629363  0.9145960533720912  1.0000
  O   O58       1.0  0.6415136969914411  0.14880180523629374  0.41459605337209166  1.0000
  O   O59       1.0  0.5072881082448529  0.3584863030085597  0.4145960533720916  1.0000
  O   O60       1.0  0.8511981947637064  0.4927118917551465  0.41459605337209166  1.0000
  O   O61       1.0  0.35848630300856005  0.5072881082448538  0.08540394662790812  1.0000
  O   O62       1.0  0.148801805236294  0.6415136969914405  0.08540394662790812  1.0000
  O   O63       1.0  0.4927118917551466  0.8511981947637058  0.08540394662790812  1.0000
  O   O64       1.0  0.3584863030085597  0.8511981947637057  0.5854039466279082  1.0000
  O   O65       1.0  0.4927118917551466  0.6415136969914402  0.5854039466279082  1.0000
  O   O66       1.0  0.14880180523629405  0.5072881082448536  0.5854039466279081  1.0000
  O   O67       1.0  0.3081803636581075  0.8260452250884804  0.24792938670542494  1.0000
  O   O68       1.0  0.5178648614303726  0.6918196363418924  0.24792938670542494  1.0000
  O   O69       1.0  0.17395477491151973  0.4821351385696263  0.24792938670542494  1.0000
  O   O70       1.0  0.3081803636581067  0.4821351385696263  0.7479293867054246  1.0000
  O   O71       1.0  0.1739547749115197  0.6918196363418921  0.7479293867054246  1.0000
  O   O72       1.0  0.5178648614303734  0.8260452250884802  0.7479293867054246  1.0000
  Li  Li1       1.0  0.9999999999999999  0.0  0.4999999999999997  1.0000
  Li  Li2       1.0  0.9999999999999999  5.551115123125853e-17  4.339944978305205e-17  1.0000
  Li  Li3       1.0  0.6666666666666659  0.33333333333333287  0.8333333333333324  1.0000
  Li  Li4       1.0  0.6666666666666659  0.333333333333333  0.3333333333333332  1.0000
  Li  Li5       1.0  0.33333333333333287  0.666666666666666  0.1666666666666666  1.0000
  Li  Li6       1.0  0.3333333333333329  0.6666666666666659  0.6666666666666664  1.0000
  Ge  Ge1       1.0  0.9999999999999999  8.0707811416738e-31  0.35928376926483774  1.0000
  Ge  Ge2       1.0  0.0  0.0  0.859283769264837  1.0000
  Ge  Ge3       1.0  0.9999999999999999  1.2400325725305629e-16  0.6407162307351613  1.0000
  Ge  Ge4       1.0  0.9999999999999999  8.240335367339216e-31  0.14071623073516193  1.0000
  Ge  Ge5       1.0  0.6666666666666659  0.33333333333333287  0.6926171025981713  1.0000
  Ge  Ge6       1.0  0.666666666666666  0.333333333333333  0.1926171025981713  1.0000
  Ge  Ge7       1.0  0.666666666666666  0.333333333333333  0.9740495640684946  1.0000
  Ge  Ge8       1.0  0.666666666666666  0.3333333333333329  0.474049564068495  1.0000
  Ge  Ge9       1.0  0.3333333333333329  0.666666666666666  0.025950435931504697  1.0000
  Ge  Ge10      1.0  0.333333333333333  0.6666666666666659  0.5259504359315048  1.0000
  Ge  Ge11      1.0  0.333333333333333  0.6666666666666661  0.3073828974018285  1.0000
  Ge  Ge12      1.0  0.3333333333333329  0.6666666666666659  0.8073828974018278  1.0000
