data_image0
_chemical_formula_structural       Fe12V24O84Li12
_chemical_formula_sum              "Fe12 V24 O84 Li12"
_cell_length_a       13.463
_cell_length_b       8.1882
_cell_length_c       14.386000000000001
_cell_angle_alpha    90.0
_cell_angle_beta     96.547
_cell_angle_gamma    90.0

_space_group_name_H-M_alt    "P 1"
_space_group_IT_number       1

loop_
  _space_group_symop_operation_xyz
  'x, y, z'

loop_
  _atom_site_type_symbol
  _atom_site_label
  _atom_site_symmetry_multiplicity
  _atom_site_fract_x
  _atom_site_fract_y
  _atom_site_fract_z
  _atom_site_occupancy
  Fe  Fe1       1.0  0.4971787951273536  0.8081892142102066  0.3711523937374092  1.0000
  Fe  Fe2       1.0  0.49717879512735347  0.19181078578979324  0.8711523937374088  1.0000
  Fe  Fe3       1.0  0.9971787951273539  0.30818921421020695  0.3711523937374092  1.0000
  Fe  Fe4       1.0  0.9971787951273537  0.6918107857897932  0.8711523937374088  1.0000
  Fe  Fe5       1.0  0.8503185304906936  0.8249928923362349  0.5405000306874168  1.0000
  Fe  Fe6       1.0  0.8503185304906936  0.17500710766376515  0.040500030687416984  1.0000
  Fe  Fe7       1.0  0.35031853049069367  0.3249928923362353  0.5405000306874168  1.0000
  Fe  Fe8       1.0  0.3503185304906939  0.6750071076637653  0.040500030687416984  1.0000
  Fe  Fe9       1.0  0.700855822403299  0.3091496128910578  0.7101448666563309  1.0000
  Fe  Fe10      1.0  0.7008558224032991  0.690850387108942  0.21014486665633103  1.0000
  Fe  Fe11      1.0  0.2008558224032989  0.809149612891058  0.7101448666563309  1.0000
  Fe  Fe12      1.0  0.20085582240329886  0.19085038710894242  0.21014486665633103  1.0000
  V   V1        1.0  0.42167304965786767  0.028375543460235346  0.1769068949956716  1.0000
  V   V2        1.0  0.4216730496578676  0.9716244565397649  0.6769068949956715  1.0000
  V   V3        1.0  0.9216730496578677  0.5283755434602351  0.1769068949956716  1.0000
  V   V4        1.0  0.9216730496578677  0.4716244565397651  0.6769068949956715  1.0000
  V   V5        1.0  0.7037188167660393  0.9616897587682081  0.3539855517580773  1.0000
  V   V6        1.0  0.7037188167660393  0.03831024123179212  0.8539855517580774  1.0000
  V   V7        1.0  0.20371881676603965  0.46168975876820834  0.3539855517580773  1.0000
  V   V8        1.0  0.2037188167660398  0.5383102412317919  0.8539855517580774  1.0000
  V   V9        1.0  0.5731023755484201  0.4597840881183126  0.5148404819861929  1.0000
  V   V10       1.0  0.5731023755484201  0.5402159118816875  0.014840481986192993  1.0000
  V   V11       1.0  0.0731023755484201  0.9597840881183125  0.5148404819861929  1.0000
  V   V12       1.0  0.07310237554842011  0.04021591188168765  0.014840481986192993  1.0000
  V   V13       1.0  0.626962991214539  0.952453679348878  0.5678673709182095  1.0000
  V   V14       1.0  0.6269629912145398  0.047546320651122104  0.06786737091820923  1.0000
  V   V15       1.0  0.12696299121453902  0.4524536793488783  0.5678673709182095  1.0000
  V   V16       1.0  0.12696299121453902  0.5475463206511221  0.06786737091820923  1.0000
  V   V17       1.0  0.2754710012444481  0.9728767221276531  0.4035320305348745  1.0000
  V   V18       1.0  0.2754710012444482  0.027123277872347046  0.903532030534875  1.0000
  V   V19       1.0  0.775471001244448  0.47287672212765325  0.4035320305348745  1.0000
  V   V20       1.0  0.775471001244448  0.5271232778723469  0.903532030534875  1.0000
  V   V21       1.0  0.4097553594921809  0.4633406550618876  0.24053762351416014  1.0000
  V   V22       1.0  0.409755359492181  0.5366593449381125  0.7405376235141601  1.0000
  V   V23       1.0  0.9097553594921813  0.9633406550618876  0.24053762351416014  1.0000
  V   V24       1.0  0.9097553594921813  0.03665934493811279  0.7405376235141601  1.0000
  O   O1        1.0  0.47755554856054444  0.3223550704883667  0.48092988750373356  1.0000
  O   O2        1.0  0.47755554856054444  0.6776449295116335  0.9809298875037337  1.0000
  O   O3        1.0  0.977555548560544  0.8223550704883665  0.48092988750373356  1.0000
  O   O4        1.0  0.9775555485605442  0.17764492951163352  0.9809298875037337  1.0000
  O   O5        1.0  0.319682144069635  0.15215085595838354  0.14109075102662633  1.0000
  O   O6        1.0  0.31968214406963497  0.8478491440416167  0.6410907510266265  1.0000
  O   O7        1.0  0.8196821440696351  0.6521508559583835  0.14109075102662633  1.0000
  O   O8        1.0  0.8196821440696352  0.34784914404161693  0.6410907510266263  1.0000
  O   O9        1.0  0.23815201474949818  0.9874233118282256  0.28446946071537627  1.0000
  O   O10       1.0  0.23815201474949826  0.012576688171774965  0.784469460715376  1.0000
  O   O11       1.0  0.7381520147494984  0.4874233118282252  0.28446946071537627  1.0000
  O   O12       1.0  0.7381520147494983  0.5125766881717749  0.784469460715376  1.0000
  O   O13       1.0  0.39704799137677294  0.48476345171761276  0.11829973460710709  1.0000
  O   O14       1.0  0.397047991376773  0.5152365482823874  0.6182997346071071  1.0000
  O   O15       1.0  0.8970479913767728  0.9847634517176118  0.11829973460710709  1.0000
  O   O16       1.0  0.8970479913767729  0.015236548282387526  0.6182997346071071  1.0000
  O   O17       1.0  0.42315062329644526  0.6504304708589752  0.29189877548115206  1.0000
  O   O18       1.0  0.42315062329644526  0.34956952914102507  0.7918987754811522  1.0000
  O   O19       1.0  0.9231506232964451  0.1504304708589753  0.29189877548115206  1.0000
  O   O20       1.0  0.923150623296445  0.849569529141025  0.7918987754811522  1.0000
  O   O21       1.0  0.29421157085293953  0.16371708843218813  0.4471108928249362  1.0000
  O   O22       1.0  0.2942115708529396  0.8362829115678119  0.9471108928249364  1.0000
  O   O23       1.0  0.7942115708529396  0.6637170884321884  0.4471108928249362  1.0000
  O   O24       1.0  0.7942115708529397  0.33628291156781215  0.9471108928249363  1.0000
  O   O25       1.0  0.5246204600618173  0.8786270147533946  0.6248055487455857  1.0000
  O   O26       1.0  0.5246204600618174  0.12137298524660599  0.12480554874558614  1.0000
  O   O27       1.0  0.02462046006181718  0.3786270147533943  0.6248055487455857  1.0000
  O   O28       1.0  0.024620460061817256  0.6213729852466056  0.12480554874558614  1.0000
  O   O29       1.0  0.6216248802659421  0.7884023038549384  0.3058125459430814  1.0000
  O   O30       1.0  0.6216248802659421  0.21159769614506174  0.8058125459430813  1.0000
  O   O31       1.0  0.12162488026594227  0.2884023038549386  0.3058125459430814  1.0000
  O   O32       1.0  0.12162488026594225  0.7115976961450616  0.8058125459430813  1.0000
  O   O33       1.0  0.5903700070249212  0.977121535180511  0.44330265132361774  1.0000
  O   O34       1.0  0.5903700070249212  0.022878464819489405  0.9433026513236179  1.0000
  O   O35       1.0  0.09037000702492118  0.4771215351805109  0.44330265132361774  1.0000
  O   O36       1.0  0.0903700070249212  0.5228784648194892  0.9433026513236179  1.0000
  O   O37       1.0  0.6752290530126785  0.13550744358154315  0.2996633434501366  1.0000
  O   O38       1.0  0.6752290530126795  0.8644925564184573  0.7996633434501368  1.0000
  O   O39       1.0  0.1752290530126792  0.6355074435815431  0.2996633434501366  1.0000
  O   O40       1.0  0.17522905301267924  0.36449255641845724  0.7996633434501368  1.0000
  O   O41       1.0  0.6585267566042897  0.13805114008673297  0.6134262137021826  1.0000
  O   O42       1.0  0.6585267566042897  0.861948859913267  0.11342621370218231  1.0000
  O   O43       1.0  0.15852675660428964  0.638051140086733  0.6134262137021826  1.0000
  O   O44       1.0  0.1585267566042896  0.36194885991326736  0.11342621370218231  1.0000
  O   O45       1.0  0.6744362464435737  0.37929958488239435  0.45646223230932287  1.0000
  O   O46       1.0  0.6744362464435733  0.6207004151176059  0.956462232309323  1.0000
  O   O47       1.0  0.17443624644357336  0.8792995848823941  0.45646223230932287  1.0000
  O   O48       1.0  0.17443624644357336  0.1207004151176059  0.956462232309323  1.0000
  O   O49       1.0  0.296509068347575  0.3695180869096731  0.27931082595416573  1.0000
  O   O50       1.0  0.29650906834757507  0.6304819130903268  0.7793108259541656  1.0000
  O   O51       1.0  0.7965090683475747  0.8695180869096731  0.27931082595416573  1.0000
  O   O52       1.0  0.7965090683475748  0.1304819130903272  0.7793108259541656  1.0000
  O   O53       1.0  0.5105819528250075  0.3492829059714607  0.27669968782443616  1.0000
  O   O54       1.0  0.5105819528250074  0.6507170940285394  0.7766996878244357  1.0000
  O   O55       1.0  0.010581952825007457  0.8492829059714608  0.27669968782443616  1.0000
  O   O56       1.0  0.010581952825007407  0.15071709402853964  0.7766996878244357  1.0000
  O   O57       1.0  0.45140090281859147  0.011307007528057685  0.2969805185060887  1.0000
  O   O58       1.0  0.4514009028185914  0.9886929924719419  0.7969805185060884  1.0000
  O   O59       1.0  0.9514009028185914  0.5113070075280575  0.2969805185060887  1.0000
  O   O60       1.0  0.9514009028185914  0.48869299247194276  0.7969805185060884  1.0000
  O   O61       1.0  0.5446000229650872  0.6502604458169078  0.4724352555746785  1.0000
  O   O62       1.0  0.5446000229650872  0.3497395541830923  0.9724352555746784  1.0000
  O   O63       1.0  0.044600022965087346  0.15026044581690798  0.4724352555746786  1.0000
  O   O64       1.0  0.044600022965087326  0.8497395541830922  0.9724352555746784  1.0000
  O   O65       1.0  0.40494945933245635  0.8409177466415225  0.12960010972282263  1.0000
  O   O66       1.0  0.4049494593324563  0.15908225335847753  0.6296001097228224  1.0000
  O   O67       1.0  0.9049494593324565  0.3409177466415227  0.12960010972282263  1.0000
  O   O68       1.0  0.9049494593324566  0.6590822533584775  0.6296001097228224  1.0000
  O   O69       1.0  0.7860824454127688  0.9983380359170149  0.45544103021883414  1.0000
  O   O70       1.0  0.786082445412769  0.0016619640829852412  0.9554410302188341  1.0000
  O   O71       1.0  0.28608244541276895  0.49833803591701503  0.45544103021883414  1.0000
  O   O72       1.0  0.28608244541276906  0.501661964082985  0.9554410302188341  1.0000
  O   O73       1.0  0.611265319603943  0.4657804139256347  0.6338582764926236  1.0000
  O   O74       1.0  0.611265319603943  0.5342195860743658  0.13385827649262386  1.0000
  O   O75       1.0  0.11126531960394301  0.9657804139256343  0.6338582764926236  1.0000
  O   O76       1.0  0.11126531960394304  0.03421958607436557  0.13385827649262386  1.0000
  O   O77       1.0  0.3774836734899259  0.8490419279995883  0.43955115975037484  1.0000
  O   O78       1.0  0.3774836734899259  0.1509580720004117  0.9395511597503747  1.0000
  O   O79       1.0  0.8774836734899263  0.34904192799958866  0.43955115975037484  1.0000
  O   O80       1.0  0.8774836734899262  0.6509580720004118  0.9395511597503747  1.0000
  O   O81       1.0  0.7193085336358662  0.8143032656076087  0.5998554837939374  1.0000
  O   O82       1.0  0.7193085336358662  0.18569673439239143  0.09985548379393742  1.0000
  O   O83       1.0  0.2193085336358664  0.3143032656076089  0.5998554837939374  1.0000
  O   O84       1.0  0.21930853363586622  0.6856967343923916  0.09985548379393742  1.0000
  Li  Li1       1.0  0.6385346195781161  0.6683138066460762  0.7163485806336192  1.0000
  Li  Li2       1.0  0.6385346195781164  0.3316861933539243  0.21634858063361997  1.0000
  Li  Li3       1.0  0.13853461957811627  0.1683138066460762  0.7163485806336192  1.0000
  Li  Li4       1.0  0.1385346195781163  0.8316861933539239  0.21634858063361997  1.0000
  Li  Li5       1.0  0.3392676505946169  0.30877899877646314  0.03363591815143621  1.0000
  Li  Li6       1.0  0.3392676505946171  0.6912210012235374  0.533635918151436  1.0000
  Li  Li7       1.0  0.8392676505946166  0.8087789987764626  0.03363591815143621  1.0000
  Li  Li8       1.0  0.8392676505946167  0.19122100122353716  0.533635918151436  1.0000
  Li  Li9       1.0  0.5217723227999982  0.18731770632765293  0.37634385449946606  1.0000
  Li  Li10      1.0  0.5217723227999982  0.8126822936723471  0.8763438544994657  1.0000
  Li  Li11      1.0  0.021772322799998276  0.687317706327653  0.37634385449946606  1.0000
  Li  Li12      1.0  0.021772322799998276  0.31268229367234746  0.8763438544994657  1.0000
