data_image0
_chemical_formula_structural       Fe12V24O84Li20
_chemical_formula_sum              "Fe12 V24 O84 Li20"
_cell_length_a       13.908602811519101
_cell_length_b       8.416444617824322
_cell_length_c       14.43971525706442
_cell_angle_alpha    90.0
_cell_angle_beta     95.29824815144343
_cell_angle_gamma    90.0

_space_group_name_H-M_alt    "P 1"
_space_group_IT_number       1

loop_
  _space_group_symop_operation_xyz
  'x, y, z'

loop_
  _atom_site_type_symbol
  _atom_site_label
  _atom_site_symmetry_multiplicity
  _atom_site_fract_x
  _atom_site_fract_y
  _atom_site_fract_z
  _atom_site_occupancy
  Fe  Fe1       1.0  0.4970989602721659  0.8014163373297772  0.3767034021185369  1.0000
  Fe  Fe2       1.0  0.49709896027216566  0.1985836626702226  0.8767034021185385  1.0000
  Fe  Fe3       1.0  0.9970989602721646  0.3014163373297776  0.37670340211853665  1.0000
  Fe  Fe4       1.0  0.9970989602721652  0.6985836626702228  0.8767034021185381  1.0000
  Fe  Fe5       1.0  0.848347285154692  0.8072032182817817  0.5353148194612953  1.0000
  Fe  Fe6       1.0  0.8483472851546909  0.19279678171821843  0.03531481946129476  1.0000
  Fe  Fe7       1.0  0.34834728515469177  0.3072032182817815  0.5353148194612951  1.0000
  Fe  Fe8       1.0  0.3483472851546908  0.6927967817182179  0.03531481946129475  1.0000
  Fe  Fe9       1.0  0.7188369035761945  0.32025265898893307  0.7094093172359118  1.0000
  Fe  Fe10      1.0  0.7188369035761951  0.6797473410110666  0.20940931723591116  1.0000
  Fe  Fe11      1.0  0.21883690357619465  0.8202526589889326  0.7094093172359127  1.0000
  Fe  Fe12      1.0  0.21883690357619406  0.1797473410110665  0.20940931723591136  1.0000
  V   V1        1.0  0.43957588767315786  0.031210391295512716  0.171971997514518  1.0000
  V   V2        1.0  0.4395758876731586  0.9687896087044893  0.6719719975145187  1.0000
  V   V3        1.0  0.9395758876731576  0.5312103912955123  0.1719719975145182  1.0000
  V   V4        1.0  0.9395758876731578  0.4687896087044874  0.6719719975145176  1.0000
  V   V5        1.0  0.6956949964763768  0.9498534009693315  0.35261474960807493  1.0000
  V   V6        1.0  0.6956949964763768  0.050146599030669585  0.8526147496080762  1.0000
  V   V7        1.0  0.19569499647637753  0.4498534009693305  0.35261474960807515  1.0000
  V   V8        1.0  0.19569499647637734  0.5501465990306686  0.852614749608076  1.0000
  V   V9        1.0  0.5709101606439585  0.4551473478700314  0.510593229299886  1.0000
  V   V10       1.0  0.5709101606439587  0.5448526521299683  0.010593229299885406  1.0000
  V   V11       1.0  0.07091016064395882  0.9551473478700324  0.5105932292998863  1.0000
  V   V12       1.0  0.07091016064395876  0.044852652129968744  0.010593229299885399  1.0000
  V   V13       1.0  0.6503156556791827  0.9561745785977582  0.5592783419520516  1.0000
  V   V14       1.0  0.6503156556791826  0.043825421402242076  0.05927834195205069  1.0000
  V   V15       1.0  0.1503156556791836  0.4561745785977578  0.5592783419520516  1.0000
  V   V16       1.0  0.1503156556791833  0.5438254214022417  0.059278341952050714  1.0000
  V   V17       1.0  0.2749452510537909  0.9586737322527278  0.4010872791890494  1.0000
  V   V18       1.0  0.27494525105379075  0.04132626774727039  0.9010872791890491  1.0000
  V   V19       1.0  0.77494525105379  0.45867373225273  0.4010872791890489  1.0000
  V   V20       1.0  0.7749452510537904  0.54132626774727  0.9010872791890482  1.0000
  V   V21       1.0  0.40485479802592056  0.4531079252689559  0.23992576822155035  1.0000
  V   V22       1.0  0.40485479802592  0.5468920747310445  0.7399257682215518  1.0000
  V   V23       1.0  0.9048547980259198  0.9531079252689549  0.2399257682215504  1.0000
  V   V24       1.0  0.9048547980259203  0.046892074731044446  0.7399257682215508  1.0000
  O   O1        1.0  0.4751142590940641  0.32860857315239916  0.47698142083661826  1.0000
  O   O2        1.0  0.4751142590940646  0.6713914268475999  0.9769814208366198  1.0000
  O   O3        1.0  0.9751142590940655  0.828608573152399  0.4769814208366185  1.0000
  O   O4        1.0  0.9751142590940649  0.1713914268476009  0.9769814208366185  1.0000
  O   O5        1.0  0.34274543407494623  0.15320375927697802  0.1414516529316206  1.0000
  O   O6        1.0  0.34274543407494673  0.8467962407230211  0.6414516529316208  1.0000
  O   O7        1.0  0.8427454340749458  0.6532037592769778  0.14145165293162046  1.0000
  O   O8        1.0  0.8427454340749453  0.34679624072302206  0.6414516529316215  1.0000
  O   O9        1.0  0.24656310977230214  0.9619122119866843  0.28156237315550325  1.0000
  O   O10       1.0  0.2465631097723023  0.03808778801331561  0.7815623731555034  1.0000
  O   O11       1.0  0.7465631097723018  0.4619122119866846  0.28156237315550353  1.0000
  O   O12       1.0  0.746563109772302  0.5380877880133148  0.7815623731555039  1.0000
  O   O13       1.0  0.39156952371113773  0.4934084141383384  0.1213833552254926  1.0000
  O   O14       1.0  0.391569523711137  0.5065915858616611  0.6213833552254934  1.0000
  O   O15       1.0  0.8915695237111373  0.9934084141383392  0.12138335522549258  1.0000
  O   O16       1.0  0.8915695237111373  0.006591585861661166  0.6213833552254941  1.0000
  O   O17       1.0  0.42781892372391656  0.6439073787146314  0.287616715472371  1.0000
  O   O18       1.0  0.4278189237239165  0.3560926212853684  0.7876167154723716  1.0000
  O   O19       1.0  0.9278189237239163  0.14390737871463127  0.2876167154723708  1.0000
  O   O20       1.0  0.9278189237239166  0.8560926212853673  0.7876167154723716  1.0000
  O   O21       1.0  0.3015248742944629  0.1440352855374276  0.4444640011965352  1.0000
  O   O22       1.0  0.3015248742944632  0.8559647144625722  0.9444640011965361  1.0000
  O   O23       1.0  0.8015248742944623  0.644035285537427  0.4444640011965352  1.0000
  O   O24       1.0  0.8015248742944633  0.3559647144625724  0.9444640011965357  1.0000
  O   O25       1.0  0.5455750886644541  0.8959720860632545  0.6222645859522808  1.0000
  O   O26       1.0  0.5455750886644537  0.10402791393674517  0.12226458595227953  1.0000
  O   O27       1.0  0.04557508866445401  0.3959720860632547  0.6222645859522807  1.0000
  O   O28       1.0  0.04557508866445394  0.6040279139367454  0.1222645859522795  1.0000
  O   O29       1.0  0.6167222088439577  0.7890885379677735  0.2998030102461057  1.0000
  O   O30       1.0  0.6167222088439568  0.210911462032225  0.7998030102461066  1.0000
  O   O31       1.0  0.11672220884395709  0.2890885379677749  0.29980301024610545  1.0000
  O   O32       1.0  0.11672220884395723  0.7109114620322249  0.799803010246106  1.0000
  O   O33       1.0  0.5844857317183482  0.9703154086863166  0.44059154046851634  1.0000
  O   O34       1.0  0.5844857317183478  0.029684591313682444  0.9405915404685168  1.0000
  O   O35       1.0  0.0844857317183484  0.4703154086863175  0.44059154046851645  1.0000
  O   O36       1.0  0.08448573171834839  0.5296845913136814  0.9405915404685168  1.0000
  O   O37       1.0  0.6800532449712392  0.12660873922292637  0.30250591520248554  1.0000
  O   O38       1.0  0.6800532449712392  0.8733912607770735  0.802505915202486  1.0000
  O   O39       1.0  0.18005324497123915  0.6266087392229261  0.3025059152024858  1.0000
  O   O40       1.0  0.1800532449712392  0.37339126077707363  0.8025059152024863  1.0000
  O   O41       1.0  0.679234980401517  0.1348740917621764  0.6047672664203219  1.0000
  O   O42       1.0  0.6792349804015182  0.8651259082378232  0.10476726642032101  1.0000
  O   O43       1.0  0.17923498040151886  0.6348740917621766  0.604767266420322  1.0000
  O   O44       1.0  0.1792349804015191  0.36512590823782376  0.10476726642032087  1.0000
  O   O45       1.0  0.67107942028019  0.38059148702363127  0.4527874071866916  1.0000
  O   O46       1.0  0.6710794202801895  0.6194085129763685  0.9527874071866917  1.0000
  O   O47       1.0  0.17107942028018983  0.8805914870236314  0.4527874071866914  1.0000
  O   O48       1.0  0.17107942028018994  0.11940851297636831  0.9527874071866921  1.0000
  O   O49       1.0  0.29750482074271956  0.3720975936787822  0.28556778614360606  1.0000
  O   O50       1.0  0.2975048207427197  0.6279024063212183  0.785567786143607  1.0000
  O   O51       1.0  0.7975048207427191  0.872097593678781  0.28556778614360656  1.0000
  O   O52       1.0  0.7975048207427196  0.12790240632121783  0.7855677861436069  1.0000
  O   O53       1.0  0.5015826678183499  0.334739733718108  0.2655657112428679  1.0000
  O   O54       1.0  0.5015826678183509  0.6652602662818926  0.765565711242869  1.0000
  O   O55       1.0  0.0015826678183506846  0.8347397337181068  0.26556571124286804  1.0000
  O   O56       1.0  0.0015826678183508442  0.16526026628189228  0.7655657112428692  1.0000
  O   O57       1.0  0.4576020372606907  0.0019640578091930116  0.29068694281665586  1.0000
  O   O58       1.0  0.45760203726069093  0.9980359421908066  0.7906869428166566  1.0000
  O   O59       1.0  0.9576020372606907  0.5019640578091926  0.29068694281665614  1.0000
  O   O60       1.0  0.9576020372606916  0.4980359421908064  0.7906869428166572  1.0000
  O   O61       1.0  0.5428147592970038  0.6438844578825195  0.4725569841209468  1.0000
  O   O62       1.0  0.5428147592970036  0.3561155421174799  0.9725569841209475  1.0000
  O   O63       1.0  0.04281475929700367  0.14388445788251972  0.47255698412094677  1.0000
  O   O64       1.0  0.04281475929700371  0.8561155421174801  0.9725569841209466  1.0000
  O   O65       1.0  0.41440353525901025  0.8404933440605212  0.12844310332722106  1.0000
  O   O66       1.0  0.41440353525900986  0.15950665593947877  0.6284431033272224  1.0000
  O   O67       1.0  0.9144035352590099  0.3404933440605209  0.12844310332722103  1.0000
  O   O68       1.0  0.9144035352590103  0.6595066559394782  0.6284431033272225  1.0000
  O   O69       1.0  0.7662814899098261  0.9740317349399022  0.4660663980177764  1.0000
  O   O70       1.0  0.7662814899098268  0.02596826506009625  0.9660663980177768  1.0000
  O   O71       1.0  0.2662814899098261  0.47403173493990436  0.4660663980177763  1.0000
  O   O72       1.0  0.26628148990982636  0.5259682650600953  0.9660663980177777  1.0000
  O   O73       1.0  0.6026009592708097  0.4510879808808915  0.6304531742192722  1.0000
  O   O74       1.0  0.6026009592708083  0.5489120191191077  0.1304531742192712  1.0000
  O   O75       1.0  0.10260095927080959  0.9510879808808916  0.6304531742192718  1.0000
  O   O76       1.0  0.10260095927080948  0.048912019119108405  0.1304531742192711  1.0000
  O   O77       1.0  0.3704036977693051  0.8293240416403427  0.43286657320796185  1.0000
  O   O78       1.0  0.3704036977693057  0.17067595835965668  0.9328665732079627  1.0000
  O   O79       1.0  0.8704036977693057  0.3293240416403427  0.4328665732079614  1.0000
  O   O80       1.0  0.8704036977693055  0.6706759583596569  0.9328665732079622  1.0000
  O   O81       1.0  0.7261734375694021  0.8002651993025371  0.6082910536895886  1.0000
  O   O82       1.0  0.7261734375694019  0.19973480069746335  0.10829105368958815  1.0000
  O   O83       1.0  0.22617343756940156  0.3002651993025363  0.608291053689588  1.0000
  O   O84       1.0  0.22617343756940136  0.6997348006974633  0.10829105368958813  1.0000
  Li  Li1       1.0  0.609970617650198  0.683517774800397  0.6833472068447759  1.0000
  Li  Li2       1.0  0.6099706176501973  0.31648222519960334  0.1833472068447752  1.0000
  Li  Li3       1.0  0.10997061765019861  0.18351777480039683  0.6833472068447756  1.0000
  Li  Li4       1.0  0.10997061765019839  0.8164822251996021  0.1833472068447751  1.0000
  Li  Li5       1.0  0.3266771219973404  0.31872968485798514  0.03675410021074526  1.0000
  Li  Li6       1.0  0.3266771219973404  0.6812703151420147  0.536754100210746  1.0000
  Li  Li7       1.0  0.8266771219973396  0.8187296848579844  0.036754100210745266  1.0000
  Li  Li8       1.0  0.8266771219973404  0.18127031514201505  0.5367541002107459  1.0000
  Li  Li9       1.0  0.5253222052546261  0.18042185917888426  0.37202735483245614  1.0000
  Li  Li10      1.0  0.5253222052546264  0.8195781408211157  0.872027354832458  1.0000
  Li  Li11      1.0  0.0253222052546264  0.680421859178883  0.3720273548324563  1.0000
  Li  Li12      1.0  0.025322205254626605  0.3195781408211156  0.8720273548324575  1.0000
  Li  Li13      1.0  0.29358354302291867  0.7507940545816087  0.237126732711126  1.0000
  Li  Li14      1.0  0.2935835430229186  0.24920594541839078  0.7371267327111264  1.0000
  Li  Li15      1.0  0.7935835430229179  0.2507940545816094  0.23712673271112597  1.0000
  Li  Li16      1.0  0.7935835430229187  0.749205945418391  0.7371267327111262  1.0000
  Li  Li17      1.0  0.021194415459223365  0.20717668168783696  0.19051071697420868  1.0000
  Li  Li18      1.0  0.021194415459223345  0.792823318312163  0.6905107169742094  1.0000
  Li  Li19      1.0  0.5211944154592234  0.7071766816878362  0.19051071697420863  1.0000
  Li  Li20      1.0  0.5211944154592238  0.2928233183121628  0.6905107169742088  1.0000
