data_image0
_chemical_formula_structural       Fe12V24O84Li20
_chemical_formula_sum              "Fe12 V24 O84 Li20"
_cell_length_a       13.87553
_cell_length_b       8.376018
_cell_length_c       14.403454999999997
_cell_angle_alpha    90.0
_cell_angle_beta     95.873993
_cell_angle_gamma    90.0

_space_group_name_H-M_alt    "P 1"
_space_group_IT_number       1

loop_
  _space_group_symop_operation_xyz
  'x, y, z'

loop_
  _atom_site_type_symbol
  _atom_site_label
  _atom_site_symmetry_multiplicity
  _atom_site_fract_x
  _atom_site_fract_y
  _atom_site_fract_z
  _atom_site_occupancy
  Fe  Fe1       1.0  0.496676583371414  0.804844343900797  0.37523617621260213  1.0000
  Fe  Fe2       1.0  0.4966765833714138  0.19515565609920357  0.875236176212602  1.0000
  Fe  Fe3       1.0  0.9966765833714138  0.304844343900797  0.3752361762126023  1.0000
  Fe  Fe4       1.0  0.9966765833714134  0.6951556560992029  0.8752361762126017  1.0000
  Fe  Fe5       1.0  0.8495513256740489  0.8132987954352722  0.5344496320225061  1.0000
  Fe  Fe6       1.0  0.8495513256740488  0.18670120456472816  0.03444963202250605  1.0000
  Fe  Fe7       1.0  0.3495513256740484  0.31329879543527156  0.5344496320225061  1.0000
  Fe  Fe8       1.0  0.3495513256740489  0.6867012045647276  0.03444963202250605  1.0000
  Fe  Fe9       1.0  0.7189048995605465  0.32034976180567987  0.7084296254612883  1.0000
  Fe  Fe10      1.0  0.7189048995605465  0.6796502381943207  0.20842962546128815  1.0000
  Fe  Fe11      1.0  0.21890489956054587  0.8203497618056791  0.7084296254612884  1.0000
  Fe  Fe12      1.0  0.218904899560546  0.17965023819431963  0.2084296254612882  1.0000
  V   V1        1.0  0.43879589283571535  0.029639129263183243  0.17007622811558035  1.0000
  V   V2        1.0  0.4387958928357159  0.970360870736817  0.6700762281155799  1.0000
  V   V3        1.0  0.9387958928357152  0.5296391292631836  0.17007622811558035  1.0000
  V   V4        1.0  0.9387958928357155  0.4703608707368167  0.6700762281155799  1.0000
  V   V5        1.0  0.6941299785478395  0.9565541207729094  0.3505350032046529  1.0000
  V   V6        1.0  0.6941299785478395  0.043445879227089396  0.8505350032046533  1.0000
  V   V7        1.0  0.19412997854783898  0.4565541207729111  0.35053500320465303  1.0000
  V   V8        1.0  0.194129978547839  0.5434458792270892  0.850535003204653  1.0000
  V   V9        1.0  0.5727897691367075  0.46281931170925683  0.5127462091642251  1.0000
  V   V10       1.0  0.5727897691367074  0.5371806882907438  0.01274620916422529  1.0000
  V   V11       1.0  0.07278976913670773  0.9628193117092543  0.5127462091642251  1.0000
  V   V12       1.0  0.07278976913670784  0.03718068829074345  0.012746209164225293  1.0000
  V   V13       1.0  0.6496304498223562  0.9572689172844059  0.5586603735663684  1.0000
  V   V14       1.0  0.6496304498223563  0.04273108271559392  0.05866037356636828  1.0000
  V   V15       1.0  0.14963044982235602  0.45726891728440583  0.5586603735663684  1.0000
  V   V16       1.0  0.14963044982235588  0.5427310827155933  0.05866037356636828  1.0000
  V   V17       1.0  0.27623048846760534  0.9631969406391026  0.40101697120881963  1.0000
  V   V18       1.0  0.2762304884676054  0.03680305936089946  0.90101697120882  1.0000
  V   V19       1.0  0.7762304884676064  0.4631969406391011  0.4010169712088201  1.0000
  V   V20       1.0  0.7762304884676063  0.5368030593609001  0.9010169712088202  1.0000
  V   V21       1.0  0.4046450905516344  0.4567543534510394  0.24040222747301357  1.0000
  V   V22       1.0  0.4046450905516341  0.5432456465489588  0.7404022274730141  1.0000
  V   V23       1.0  0.9046450905516342  0.9567543534510413  0.24040222747301357  1.0000
  V   V24       1.0  0.9046450905516343  0.04324564654895998  0.7404022274730141  1.0000
  O   O1        1.0  0.4770807558423338  0.33443200644191856  0.4784422018590317  1.0000
  O   O2        1.0  0.4770807558423338  0.6655679935580817  0.9784422018590311  1.0000
  O   O3        1.0  0.9770807558423342  0.8344320064419182  0.4784422018590317  1.0000
  O   O4        1.0  0.977080755842334  0.16556799355808147  0.9784422018590311  1.0000
  O   O5        1.0  0.3410265423335472  0.15115186436268505  0.1392666237512362  1.0000
  O   O6        1.0  0.34102654233354723  0.8488481356373155  0.6392666237512359  1.0000
  O   O7        1.0  0.8410265423335475  0.6511518643626845  0.1392666237512362  1.0000
  O   O8        1.0  0.8410265423335473  0.34884813563731554  0.6392666237512359  1.0000
  O   O9        1.0  0.24576456433709512  0.9632840615772458  0.2814189052274917  1.0000
  O   O10       1.0  0.24576456433709493  0.036715938422753974  0.7814189052274907  1.0000
  O   O11       1.0  0.7457645643370944  0.4632840615772461  0.2814189052274917  1.0000
  O   O12       1.0  0.745764564337094  0.5367159384227539  0.7814189052274907  1.0000
  O   O13       1.0  0.39171912876041787  0.4906768626253917  0.12015693130797778  1.0000
  O   O14       1.0  0.39171912876041837  0.5093231373746083  0.6201569313079781  1.0000
  O   O15       1.0  0.8917191287604187  0.9906768626253937  0.12015693130797778  1.0000
  O   O16       1.0  0.891719128760419  0.009323137374607623  0.6201569313079781  1.0000
  O   O17       1.0  0.4275071941556504  0.6497518662088565  0.28618593143340953  1.0000
  O   O18       1.0  0.4275071941556509  0.3502481337911441  0.7861859314334093  1.0000
  O   O19       1.0  0.9275071941556503  0.14975186620885686  0.28618593143340953  1.0000
  O   O20       1.0  0.9275071941556507  0.8502481337911434  0.7861859314334093  1.0000
  O   O21       1.0  0.3059564543605741  0.15006911141527993  0.44132029076437457  1.0000
  O   O22       1.0  0.3059564543605739  0.8499308885847208  0.9413202907643736  1.0000
  O   O23       1.0  0.8059564543605744  0.650069111415279  0.44132029076437457  1.0000
  O   O24       1.0  0.8059564543605744  0.3499308885847201  0.9413202907643736  1.0000
  O   O25       1.0  0.5450131064640457  0.8960988128921664  0.6227387676512458  1.0000
  O   O26       1.0  0.5450131064640458  0.10390118710783348  0.12273876765124664  1.0000
  O   O27       1.0  0.04501310646404572  0.39609881289216686  0.6227387676512458  1.0000
  O   O28       1.0  0.04501310646404584  0.6039011871078335  0.12273876765124664  1.0000
  O   O29       1.0  0.6164330565453663  0.7952223991739453  0.2984910562821745  1.0000
  O   O30       1.0  0.6164330565453664  0.20477760082605442  0.7984910562821732  1.0000
  O   O31       1.0  0.11643305654536597  0.2952223991739456  0.2984910562821745  1.0000
  O   O32       1.0  0.11643305654536594  0.7047776008260547  0.7984910562821732  1.0000
  O   O33       1.0  0.5844281217456944  0.9750373267914749  0.43980389683107785  1.0000
  O   O34       1.0  0.5844281217456944  0.024962673208525767  0.939803896831077  1.0000
  O   O35       1.0  0.08442812174569446  0.47503732679147426  0.43980389683107773  1.0000
  O   O36       1.0  0.08442812174569439  0.5249626732085252  0.939803896831077  1.0000
  O   O37       1.0  0.6807932695703304  0.1344045011948534  0.2986165379593447  1.0000
  O   O38       1.0  0.6807932695703305  0.8655954988051477  0.7986165379593451  1.0000
  O   O39       1.0  0.18079326957033104  0.6344045011948521  0.2986165379593447  1.0000
  O   O40       1.0  0.18079326957033107  0.36559549880514686  0.7986165379593451  1.0000
  O   O41       1.0  0.6772618510060366  0.13777181911565856  0.6045866691014544  1.0000
  O   O42       1.0  0.6772618510060369  0.8622281808843407  0.10458666910145525  1.0000
  O   O43       1.0  0.17726185100603672  0.6377718191156592  0.6045866691014546  1.0000
  O   O44       1.0  0.17726185100603675  0.36222818088434194  0.10458666910145523  1.0000
  O   O45       1.0  0.6740239169803652  0.3901438453442798  0.4565419090272781  1.0000
  O   O46       1.0  0.6740239169803645  0.6098561546557205  0.9565419090272775  1.0000
  O   O47       1.0  0.17402391698036496  0.8901438453442794  0.4565419090272781  1.0000
  O   O48       1.0  0.17402391698036496  0.10985615465572045  0.9565419090272775  1.0000
  O   O49       1.0  0.29768346834115533  0.3765762345251616  0.2846031273701826  1.0000
  O   O50       1.0  0.29768346834115506  0.6234237654748394  0.7846031273701822  1.0000
  O   O51       1.0  0.7976834683411552  0.8765762345251605  0.2846031273701826  1.0000
  O   O52       1.0  0.7976834683411551  0.12342376547483883  0.7846031273701822  1.0000
  O   O53       1.0  0.5010084214788997  0.3383514424908596  0.2705183916495159  1.0000
  O   O54       1.0  0.5010084214788998  0.6616485575091406  0.7705183916495159  1.0000
  O   O55       1.0  0.00100842147889965  0.8383514424908591  0.2705183916495159  1.0000
  O   O56       1.0  0.001008421478899574  0.16164855750914095  0.7705183916495159  1.0000
  O   O57       1.0  0.45564489700250965  0.002133477438487544  0.2900154909880873  1.0000
  O   O58       1.0  0.45564489700250954  0.9978665225615138  0.7900154909880865  1.0000
  O   O59       1.0  0.9556448970025107  0.5021334774384876  0.2900154909880873  1.0000
  O   O60       1.0  0.9556448970025103  0.4978665225615123  0.7900154909880865  1.0000
  O   O61       1.0  0.5447895467368175  0.6511613734938525  0.47262468867107543  1.0000
  O   O62       1.0  0.5447895467368176  0.34883862650614655  0.972624688671076  1.0000
  O   O63       1.0  0.04478954673681691  0.15116137349385317  0.47262468867107543  1.0000
  O   O64       1.0  0.04478954673681695  0.8488386265061473  0.9726246886710762  1.0000
  O   O65       1.0  0.41494469430981235  0.8378514531191547  0.12682426415733813  1.0000
  O   O66       1.0  0.4149446943098128  0.1621485468808466  0.6268242641573379  1.0000
  O   O67       1.0  0.914944694309811  0.3378514531191528  0.12682426415733813  1.0000
  O   O68       1.0  0.9149446943098116  0.6621485468808452  0.6268242641573379  1.0000
  O   O69       1.0  0.7650230324205255  0.9774693917826346  0.4649066075821387  1.0000
  O   O70       1.0  0.7650230324205257  0.022530608217365723  0.964906607582138  1.0000
  O   O71       1.0  0.2650230324205251  0.4774693917826342  0.4649066075821387  1.0000
  O   O72       1.0  0.2650230324205252  0.5225306082173657  0.964906607582138  1.0000
  O   O73       1.0  0.6033873617647666  0.456847174503266  0.6328759489325197  1.0000
  O   O74       1.0  0.6033873617647683  0.5431528254967328  0.13287594893252067  1.0000
  O   O75       1.0  0.10338736176476723  0.9568471745032638  0.6328759489325197  1.0000
  O   O76       1.0  0.10338736176476727  0.04315282549673393  0.13287594893252067  1.0000
  O   O77       1.0  0.37129114751161457  0.8317650455482671  0.4331235329460122  1.0000
  O   O78       1.0  0.3712911475116148  0.16823495445173267  0.9331235329460128  1.0000
  O   O79       1.0  0.8712911475116145  0.3317650455482674  0.4331235329460122  1.0000
  O   O80       1.0  0.8712911475116145  0.6682349544517326  0.9331235329460128  1.0000
  O   O81       1.0  0.7268463871800309  0.8033769689112756  0.6070711855644549  1.0000
  O   O82       1.0  0.7268463871800308  0.19662303108872403  0.10707118556445493  1.0000
  O   O83       1.0  0.22684638718003142  0.30337696891127613  0.6070711855644549  1.0000
  O   O84       1.0  0.22684638718003142  0.6966230310887243  0.10707118556445493  1.0000
  Li  Li1       1.0  0.6117726848791163  0.6929606995887798  0.6964415094257159  1.0000
  Li  Li2       1.0  0.6117726848791144  0.30703930041121935  0.19644150942571628  1.0000
  Li  Li3       1.0  0.11177268487911601  0.1929606995887808  0.6964415094257159  1.0000
  Li  Li4       1.0  0.1117726848791159  0.8070393004112201  0.19644150942571628  1.0000
  Li  Li5       1.0  0.32662410175041817  0.315478248768691  0.035968395061048895  1.0000
  Li  Li6       1.0  0.32662410175041906  0.6845217512313085  0.535968395061049  1.0000
  Li  Li7       1.0  0.8266241017504189  0.8154782487686915  0.035968395061048895  1.0000
  Li  Li8       1.0  0.8266241017504184  0.18452175123130943  0.535968395061049  1.0000
  Li  Li9       1.0  0.5137879529529199  0.18240008336345326  0.37522802864801014  1.0000
  Li  Li10      1.0  0.5137879529529199  0.8175999166365463  0.8752280286480087  1.0000
  Li  Li11      1.0  0.013787952952919928  0.6824000833634535  0.37522802864801014  1.0000
  Li  Li12      1.0  0.01378795295291972  0.3175999166365466  0.8752280286480087  1.0000
  Li  Li13      1.0  0.29503182263396854  0.7564700898951842  0.23411265752544702  1.0000
  Li  Li14      1.0  0.2950318226339681  0.24352991010481664  0.734112657525446  1.0000
  Li  Li15      1.0  0.795031822633968  0.2564700898951838  0.23411265752544702  1.0000
  Li  Li16      1.0  0.7950318226339682  0.7435299101048157  0.7341126575254464  1.0000
  Li  Li17      1.0  0.022984023154452273  0.20844797751490451  0.18990597913623136  1.0000
  Li  Li18      1.0  0.02298402315445225  0.7915520224850958  0.6899059791362313  1.0000
  Li  Li19      1.0  0.5229840231544527  0.7084479775149042  0.18990597913623128  1.0000
  Li  Li20      1.0  0.5229840231544527  0.29155202248509643  0.6899059791362315  1.0000
