data_image0
_chemical_formula_structural       Fe12V24O84Li12
_chemical_formula_sum              "Fe12 V24 O84 Li12"
_cell_length_a       13.726188988838704
_cell_length_b       8.38109712090369
_cell_length_c       14.574202528770105
_cell_angle_alpha    90.0
_cell_angle_beta     95.77847018928419
_cell_angle_gamma    90.0

_space_group_name_H-M_alt    "P 1"
_space_group_IT_number       1

loop_
  _space_group_symop_operation_xyz
  'x, y, z'

loop_
  _atom_site_type_symbol
  _atom_site_label
  _atom_site_symmetry_multiplicity
  _atom_site_fract_x
  _atom_site_fract_y
  _atom_site_fract_z
  _atom_site_occupancy
  Fe  Fe1       1.0  0.4980516497388651  0.800561022242591  0.37226747115518377  1.0000
  Fe  Fe2       1.0  0.49805164973886523  0.19943897775740677  0.8722674711551827  1.0000
  Fe  Fe3       1.0  0.9980516497388657  0.3005610222425927  0.3722674711551842  1.0000
  Fe  Fe4       1.0  0.9980516497388657  0.6994389777574072  0.8722674711551834  1.0000
  Fe  Fe5       1.0  0.8500769592425085  0.8236849669848271  0.5395348774873246  1.0000
  Fe  Fe6       1.0  0.8500769592425091  0.17631503301517196  0.03953487748732515  1.0000
  Fe  Fe7       1.0  0.3500769592425088  0.3236849669848279  0.5395348774873244  1.0000
  Fe  Fe8       1.0  0.35007695924250914  0.6763150330151709  0.03953487748732508  1.0000
  Fe  Fe9       1.0  0.7023383667644201  0.303361679922233  0.7097737606391918  1.0000
  Fe  Fe10      1.0  0.7023383667644207  0.696638320077766  0.2097737606391921  1.0000
  Fe  Fe11      1.0  0.2023383667644206  0.8033616799222322  0.7097737606391921  1.0000
  Fe  Fe12      1.0  0.2023383667644204  0.1966383200777667  0.20977376063919217  1.0000
  V   V1        1.0  0.4225463773875498  0.020739715001413406  0.17725566935560802  1.0000
  V   V2        1.0  0.4225463773875492  0.9792602849985861  0.6772556693556074  1.0000
  V   V3        1.0  0.9225463773875495  0.5207397150014128  0.17725566935560805  1.0000
  V   V4        1.0  0.9225463773875502  0.4792602849985866  0.6772556693556065  1.0000
  V   V5        1.0  0.7028456886007622  0.9646614286666089  0.35412935094150705  1.0000
  V   V6        1.0  0.7028456886007628  0.035338571333390814  0.8541293509415065  1.0000
  V   V7        1.0  0.20284568860076313  0.4646614286666089  0.35412935094150705  1.0000
  V   V8        1.0  0.20284568860076294  0.5353385713333896  0.8541293509415067  1.0000
  V   V9        1.0  0.5738145226307931  0.4630093796263935  0.5174754628779242  1.0000
  V   V10       1.0  0.5738145226307934  0.5369906203736067  0.017475462877924786  1.0000
  V   V11       1.0  0.07381452263079281  0.9630093796263927  0.5174754628779242  1.0000
  V   V12       1.0  0.07381452263079294  0.03699062037360667  0.017475462877924786  1.0000
  V   V13       1.0  0.6298810932451213  0.9599005994765353  0.5652212221992438  1.0000
  V   V14       1.0  0.629881093245122  0.04009940052346416  0.06522122219924359  1.0000
  V   V15       1.0  0.1298810932451211  0.4599005994765358  0.5652212221992431  1.0000
  V   V16       1.0  0.12988109324512123  0.5400994005234635  0.0652212221992436  1.0000
  V   V17       1.0  0.2767885837606237  0.9755849681102776  0.40345154479508194  1.0000
  V   V18       1.0  0.2767885837606233  0.024415031889720766  0.903451544795081  1.0000
  V   V19       1.0  0.7767885837606233  0.47558496811027917  0.4034515447950818  1.0000
  V   V20       1.0  0.7767885837606234  0.5244150318897198  0.903451544795081  1.0000
  V   V21       1.0  0.40775976972781475  0.4631305886806672  0.23850605913612766  1.0000
  V   V22       1.0  0.40775976972781514  0.5368694113193314  0.7385060591361263  1.0000
  V   V23       1.0  0.9077597697278142  0.9631305886806667  0.23850605913612757  1.0000
  V   V24       1.0  0.9077597697278146  0.03686941131933267  0.7385060591361258  1.0000
  O   O1        1.0  0.4815782769310309  0.32651731446172516  0.4852739219500837  1.0000
  O   O2        1.0  0.48157827693103045  0.6734826855382732  0.9852739219500823  1.0000
  O   O3        1.0  0.9815782769310315  0.8265173144617248  0.4852739219500831  1.0000
  O   O4        1.0  0.9815782769310327  0.1734826855382743  0.9852739219500828  1.0000
  O   O5        1.0  0.326158937847717  0.15212217240685055  0.14821210347899275  1.0000
  O   O6        1.0  0.32615893784771727  0.8478778275931486  0.6482121034789925  1.0000
  O   O7        1.0  0.8261589378477173  0.652122172406849  0.14821210347899286  1.0000
  O   O8        1.0  0.8261589378477167  0.3478778275931494  0.6482121034789926  1.0000
  O   O9        1.0  0.23574587684239293  0.9991899446742364  0.2873329387880121  1.0000
  O   O10       1.0  0.23574587684239265  0.0008100553257630347  0.7873329387880111  1.0000
  O   O11       1.0  0.7357458768423937  0.49918994467423633  0.2873329387880121  1.0000
  O   O12       1.0  0.7357458768423921  0.5008100553257631  0.787332938788012  1.0000
  O   O13       1.0  0.39229168936459197  0.4898055423139011  0.11846046581908476  1.0000
  O   O14       1.0  0.3922916893645923  0.5101944576860984  0.6184604658190835  1.0000
  O   O15       1.0  0.892291689364592  0.9898055423139003  0.1184604658190847  1.0000
  O   O16       1.0  0.8922916893645922  0.010194457686098985  0.6184604658190836  1.0000
  O   O17       1.0  0.43181317604440617  0.6413089310956626  0.29235392381250686  1.0000
  O   O18       1.0  0.4318131760444057  0.35869106890433694  0.7923539238125059  1.0000
  O   O19       1.0  0.9318131760444056  0.14130893109566295  0.2923539238125067  1.0000
  O   O20       1.0  0.9318131760444053  0.8586910689043364  0.7923539238125057  1.0000
  O   O21       1.0  0.30576657166979837  0.1591053317127284  0.4467062443420771  1.0000
  O   O22       1.0  0.305766571669798  0.8408946682872704  0.9467062443420766  1.0000
  O   O23       1.0  0.8057665716697976  0.6591053317127281  0.4467062443420776  1.0000
  O   O24       1.0  0.8057665716697973  0.3408946682872712  0.9467062443420771  1.0000
  O   O25       1.0  0.5275791224948686  0.9052868004189011  0.6233939210659055  1.0000
  O   O26       1.0  0.5275791224948688  0.09471319958109789  0.12339392106590721  1.0000
  O   O27       1.0  0.027579122494868533  0.40528680041890175  0.6233939210659061  1.0000
  O   O28       1.0  0.02757912249486889  0.5947131995810974  0.12339392106590724  1.0000
  O   O29       1.0  0.6239482706310316  0.7956446654832461  0.3062066370426299  1.0000
  O   O30       1.0  0.6239482706310321  0.2043553345167531  0.8062066370426291  1.0000
  O   O31       1.0  0.12394827063103164  0.2956446654832466  0.30620663704262985  1.0000
  O   O32       1.0  0.12394827063103142  0.7043553345167524  0.8062066370426288  1.0000
  O   O33       1.0  0.5885900936276203  0.9701476673207743  0.44227699104262574  1.0000
  O   O34       1.0  0.5885900936276196  0.029852332679225595  0.9422769910426246  1.0000
  O   O35       1.0  0.08859009362761976  0.4701476673207741  0.44227699104262586  1.0000
  O   O36       1.0  0.08859009362761956  0.5298523326792245  0.9422769910426246  1.0000
  O   O37       1.0  0.6726150077227548  0.1400357211482734  0.3073673718202271  1.0000
  O   O38       1.0  0.6726150077227555  0.859964278851726  0.8073673718202266  1.0000
  O   O39       1.0  0.17261500772275493  0.6400357211482735  0.3073673718202273  1.0000
  O   O40       1.0  0.17261500772275487  0.35996427885172644  0.8073673718202274  1.0000
  O   O41       1.0  0.6688401679249266  0.14132322364022917  0.6072368848974643  1.0000
  O   O42       1.0  0.6688401679249258  0.858676776359769  0.10723688489746525  1.0000
  O   O43       1.0  0.16884016792492593  0.6413232236402285  0.6072368848974643  1.0000
  O   O44       1.0  0.1688401679249262  0.3586767763597707  0.10723688489746519  1.0000
  O   O45       1.0  0.6758380203992879  0.3960176951250154  0.4585578897404941  1.0000
  O   O46       1.0  0.6758380203992863  0.6039823048749835  0.9585578897404937  1.0000
  O   O47       1.0  0.17583802039928678  0.8960176951250146  0.45855788974049405  1.0000
  O   O48       1.0  0.17583802039928656  0.1039823048749842  0.9585578897404935  1.0000
  O   O49       1.0  0.2930758873120831  0.381333381974464  0.2768918441795843  1.0000
  O   O50       1.0  0.29307588731208306  0.6186666180255348  0.7768918441795839  1.0000
  O   O51       1.0  0.793075887312083  0.8813333819744632  0.27689184417958457  1.0000
  O   O52       1.0  0.7930758873120831  0.11866661802553582  0.7768918441795836  1.0000
  O   O53       1.0  0.5013238956148254  0.3374119596930447  0.26857036471652046  1.0000
  O   O54       1.0  0.5013238956148248  0.6625880403069545  0.7685703647165192  1.0000
  O   O55       1.0  0.0013238956148252353  0.8374119596930435  0.2685703647165203  1.0000
  O   O56       1.0  0.0013238956148249844  0.16258804030695473  0.7685703647165193  1.0000
  O   O57       1.0  0.4534309254626857  0.9975206044292818  0.29476213713091304  1.0000
  O   O58       1.0  0.4534309254626855  0.002479395570716747  0.7947621371309126  1.0000
  O   O59       1.0  0.9534309254626857  0.49752060442928114  0.2947621371309124  1.0000
  O   O60       1.0  0.9534309254626865  0.5024793955707179  0.7947621371309128  1.0000
  O   O61       1.0  0.5410499620754702  0.6483868605040745  0.47610776258044196  1.0000
  O   O62       1.0  0.5410499620754704  0.35161313949592454  0.9761077625804421  1.0000
  O   O63       1.0  0.04104996207547031  0.14838686050407546  0.4761077625804421  1.0000
  O   O64       1.0  0.04104996207547025  0.8516131394959239  0.9761077625804419  1.0000
  O   O65       1.0  0.39657673958683454  0.84015911293247  0.13017849504414622  1.0000
  O   O66       1.0  0.3965767395868346  0.15984088706752902  0.6301784950441456  1.0000
  O   O67       1.0  0.8965767395868347  0.3401591129324707  0.1301784950441461  1.0000
  O   O68       1.0  0.8965767395868339  0.6598408870675283  0.6301784950441448  1.0000
  O   O69       1.0  0.7817207984530454  0.9927522067055669  0.4560103349062507  1.0000
  O   O70       1.0  0.7817207984530448  0.007247793294432385  0.9560103349062496  1.0000
  O   O71       1.0  0.2817207984530439  0.492752206705567  0.45601033490625104  1.0000
  O   O72       1.0  0.2817207984530438  0.5072477932944316  0.95601033490625  1.0000
  O   O73       1.0  0.6143314173410361  0.4607684258599712  0.6348955804574788  1.0000
  O   O74       1.0  0.6143314173410357  0.5392315741400274  0.13489558045747962  1.0000
  O   O75       1.0  0.11433141734103629  0.9607684258599702  0.6348955804574788  1.0000
  O   O76       1.0  0.11433141734103645  0.03923157414002881  0.13489558045747965  1.0000
  O   O77       1.0  0.37261595036272266  0.8422841162168062  0.432616293696474  1.0000
  O   O78       1.0  0.37261595036272244  0.15771588378319246  0.9326162936964733  1.0000
  O   O79       1.0  0.8726159503627227  0.34228411621680693  0.43261629369647453  1.0000
  O   O80       1.0  0.8726159503627219  0.6577158837831916  0.9326162936964738  1.0000
  O   O81       1.0  0.7155753656070457  0.8171891694405801  0.5958535423364393  1.0000
  O   O82       1.0  0.7155753656070459  0.18281083055941894  0.09585354233644015  1.0000
  O   O83       1.0  0.21557536560704588  0.3171891694405807  0.5958535423364391  1.0000
  O   O84       1.0  0.215575365607046  0.6828108305594178  0.0958535423364401  1.0000
  Li  Li1       1.0  0.6396809441502056  0.6663809229419928  0.7211934677841649  1.0000
  Li  Li2       1.0  0.6396809441502066  0.3336190770580049  0.2211934677841653  1.0000
  Li  Li3       1.0  0.1396809441502059  0.16638092294199452  0.7211934677841645  1.0000
  Li  Li4       1.0  0.13968094415020604  0.833619077058005  0.2211934677841654  1.0000
  Li  Li5       1.0  0.3312306166202928  0.30894120319736024  0.03529701077352098  1.0000
  Li  Li6       1.0  0.3312306166202923  0.6910587968026387  0.5352970107735205  1.0000
  Li  Li7       1.0  0.8312306166202929  0.8089412031973602  0.03529701077352097  1.0000
  Li  Li8       1.0  0.8312306166202937  0.19105879680263904  0.5352970107735207  1.0000
  Li  Li9       1.0  0.5199192748176568  0.18296911942417224  0.37342845400334024  1.0000
  Li  Li10      1.0  0.5199192748176559  0.8170308805758263  0.8734284540033401  1.0000
  Li  Li11      1.0  0.019919274817655624  0.6829691194241716  0.3734284540033399  1.0000
  Li  Li12      1.0  0.019919274817655482  0.3170308805758272  0.8734284540033402  1.0000
