data_image0
_chemical_formula_structural       Fe12V24O84Li12
_chemical_formula_sum              "Fe12 V24 O84 Li12"
_cell_length_a       13.719338510018597
_cell_length_b       8.408321097725869
_cell_length_c       14.493086688829862
_cell_angle_alpha    90.00000000000003
_cell_angle_beta     95.00643647713045
_cell_angle_gamma    90.0

_space_group_name_H-M_alt    "P 1"
_space_group_IT_number       1

loop_
  _space_group_symop_operation_xyz
  'x, y, z'

loop_
  _atom_site_type_symbol
  _atom_site_label
  _atom_site_symmetry_multiplicity
  _atom_site_fract_x
  _atom_site_fract_y
  _atom_site_fract_z
  _atom_site_occupancy
  Fe  Fe1       1.0  0.4975666337767477  0.7990318135208551  0.37288494196581023  1.0000
  Fe  Fe2       1.0  0.49756663377674804  0.20096818647914585  0.8728849419658097  1.0000
  Fe  Fe3       1.0  0.9975666337767488  0.2990318135208553  0.37288494196581035  1.0000
  Fe  Fe4       1.0  0.9975666337767489  0.7009681864791455  0.8728849419658085  1.0000
  Fe  Fe5       1.0  0.8488381397649813  0.8211595515593162  0.5399582026394423  1.0000
  Fe  Fe6       1.0  0.848838139764981  0.17884044844068456  0.03995820263944279  1.0000
  Fe  Fe7       1.0  0.3488381397649807  0.3211595515593157  0.5399582026394423  1.0000
  Fe  Fe8       1.0  0.3488381397649807  0.6788404484406831  0.039958202639442726  1.0000
  Fe  Fe9       1.0  0.7026915158159547  0.30520449896629964  0.7091729162903314  1.0000
  Fe  Fe10      1.0  0.7026915158159551  0.6947955010337019  0.2091729162903326  1.0000
  Fe  Fe11      1.0  0.2026915158159548  0.8052044989662998  0.7091729162903316  1.0000
  Fe  Fe12      1.0  0.202691515815955  0.1947955010337015  0.20917291629033272  1.0000
  V   V1        1.0  0.4226308101566565  0.019414047118347467  0.17811091899256706  1.0000
  V   V2        1.0  0.4226308101566563  0.9805859528816536  0.6781109189925659  1.0000
  V   V3        1.0  0.9226308101566554  0.5194140471183476  0.178110918992567  1.0000
  V   V4        1.0  0.9226308101566559  0.4805859528816535  0.6781109189925658  1.0000
  V   V5        1.0  0.7021483499817531  0.9628126508356856  0.3540438738780489  1.0000
  V   V6        1.0  0.7021483499817536  0.03718734916431918  0.8540438738780474  1.0000
  V   V7        1.0  0.20214834998175346  0.4628126508356814  0.3540438738780492  1.0000
  V   V8        1.0  0.2021483499817532  0.5371873491643209  0.8540438738780473  1.0000
  V   V9        1.0  0.5720663387259463  0.46204023567199837  0.5177090507849282  1.0000
  V   V10       1.0  0.5720663387259464  0.5379597643280016  0.017709050784928418  1.0000
  V   V11       1.0  0.07206633872594607  0.9620402356719983  0.5177090507849277  1.0000
  V   V12       1.0  0.07206633872594617  0.03795976432800227  0.017709050784928373  1.0000
  V   V13       1.0  0.6324805577145837  0.9616265155930112  0.5645737582611382  1.0000
  V   V14       1.0  0.6324805577145852  0.038373484406989546  0.06457375826113841  1.0000
  V   V15       1.0  0.13248055771458342  0.461626515593011  0.5645737582611373  1.0000
  V   V16       1.0  0.13248055771458356  0.5383734844069896  0.06457375826113841  1.0000
  V   V17       1.0  0.27673635714692646  0.9734637308304519  0.4028010702245066  1.0000
  V   V18       1.0  0.2767363571469267  0.026536269169548467  0.902801070224506  1.0000
  V   V19       1.0  0.7767363571469263  0.4734637308304521  0.40280107022450623  1.0000
  V   V20       1.0  0.7767363571469275  0.5265362691695475  0.9028010702245053  1.0000
  V   V21       1.0  0.40900797525869587  0.4614567353365261  0.23815678850430855  1.0000
  V   V22       1.0  0.40900797525869603  0.5385432646634756  0.738156788504308  1.0000
  V   V23       1.0  0.9090079752586963  0.961456735336525  0.23815678850430833  1.0000
  V   V24       1.0  0.9090079752586957  0.038543264663474304  0.7381567885043075  1.0000
  O   O1        1.0  0.48066478112556305  0.32480303413964223  0.48514898624460423  1.0000
  O   O2        1.0  0.48066478112556293  0.6751969658603594  0.9851489862446029  1.0000
  O   O3        1.0  0.9806647811255631  0.8248030341396414  0.4851489862446043  1.0000
  O   O4        1.0  0.9806647811255628  0.17519696586035832  0.9851489862446029  1.0000
  O   O5        1.0  0.32774351082260333  0.15246964553433975  0.14826159334864436  1.0000
  O   O6        1.0  0.3277435108226042  0.847530354465661  0.6482615933486454  1.0000
  O   O7        1.0  0.8277435108226072  0.6524696455343391  0.1482615933486447  1.0000
  O   O8        1.0  0.8277435108226052  0.34753035446566105  0.6482615933486455  1.0000
  O   O9        1.0  0.2364468314144738  0.9976046325905239  0.28647727944657586  1.0000
  O   O10       1.0  0.23644683141447384  0.0023953674094759052  0.7864772794465763  1.0000
  O   O11       1.0  0.7364468314144731  0.4976046325905244  0.2864772794465754  1.0000
  O   O12       1.0  0.7364468314144729  0.5023953674094767  0.7864772794465754  1.0000
  O   O13       1.0  0.3929347284053837  0.49147032246362515  0.11793663622482589  1.0000
  O   O14       1.0  0.3929347284053836  0.5085296775363759  0.6179366362248253  1.0000
  O   O15       1.0  0.8929347284053838  0.9914703224636243  0.11793663622482595  1.0000
  O   O16       1.0  0.8929347284053836  0.00852967753637612  0.6179366362248256  1.0000
  O   O17       1.0  0.43433269731109775  0.6376670958265813  0.2931359112066273  1.0000
  O   O18       1.0  0.43433269731109675  0.36233290417341907  0.7931359112066255  1.0000
  O   O19       1.0  0.9343326973110962  0.13766709582658163  0.2931359112066273  1.0000
  O   O20       1.0  0.9343326973110995  0.8623329041734197  0.7931359112066265  1.0000
  O   O21       1.0  0.30622932375380496  0.15517161913634245  0.4473337795817098  1.0000
  O   O22       1.0  0.3062293237538052  0.8448283808636582  0.947333779581708  1.0000
  O   O23       1.0  0.8062293237538048  0.6551716191363429  0.4473337795817097  1.0000
  O   O24       1.0  0.806229323753805  0.3448283808636581  0.9473337795817082  1.0000
  O   O25       1.0  0.5288574960450905  0.9118985211261499  0.623179485126367  1.0000
  O   O26       1.0  0.5288574960450901  0.08810147887385046  0.12317948512636807  1.0000
  O   O27       1.0  0.028857496045090747  0.41189852112615066  0.6231794851263676  1.0000
  O   O28       1.0  0.028857496045090785  0.5881014788738517  0.12317948512636806  1.0000
  O   O29       1.0  0.623793533341216  0.7949015813520074  0.3055238377768512  1.0000
  O   O30       1.0  0.6237935333412168  0.20509841864799258  0.8055238377768504  1.0000
  O   O31       1.0  0.12379353334121662  0.2949015813520083  0.30552383777685066  1.0000
  O   O32       1.0  0.1237935333412165  0.705098418647992  0.80552383777685  1.0000
  O   O33       1.0  0.5875628805041438  0.9680117812925736  0.4421355341279888  1.0000
  O   O34       1.0  0.5875628805041435  0.031988218707425436  0.9421355341279881  1.0000
  O   O35       1.0  0.08756288050414389  0.4680117812925749  0.4421355341279889  1.0000
  O   O36       1.0  0.08756288050414374  0.5319882187074256  0.9421355341279879  1.0000
  O   O37       1.0  0.6723862595541719  0.1378513574998361  0.307397209920235  1.0000
  O   O38       1.0  0.6723862595541719  0.8621486425001647  0.8073972099202349  1.0000
  O   O39       1.0  0.17238625955417125  0.6378513574998368  0.3073972099202346  1.0000
  O   O40       1.0  0.17238625955417122  0.3621486425001642  0.8073972099202341  1.0000
  O   O41       1.0  0.6723723268978902  0.14216958867434087  0.6064544657925373  1.0000
  O   O42       1.0  0.6723723268978903  0.8578304113256598  0.10645446579253771  1.0000
  O   O43       1.0  0.17237232689788964  0.64216958867434  0.6064544657925381  1.0000
  O   O44       1.0  0.17237232689788937  0.35783041132566  0.10645446579253762  1.0000
  O   O45       1.0  0.6738699696958955  0.39627346973226446  0.4575048756278086  1.0000
  O   O46       1.0  0.6738699696958956  0.6037265302677364  0.9575048756278094  1.0000
  O   O47       1.0  0.17386996969589558  0.8962734697322638  0.45750487562780895  1.0000
  O   O48       1.0  0.1738699696958957  0.10372653026773598  0.9575048756278104  1.0000
  O   O49       1.0  0.2943548083617996  0.38058338235681116  0.27803795324725056  1.0000
  O   O50       1.0  0.2943548083617992  0.6194166176431884  0.7780379532472491  1.0000
  O   O51       1.0  0.7943548083618004  0.880583382356812  0.2780379532472507  1.0000
  O   O52       1.0  0.7943548083617986  0.11941661764318838  0.7780379532472497  1.0000
  O   O53       1.0  0.5017175485024169  0.33389996207768774  0.2659136824568383  1.0000
  O   O54       1.0  0.5017175485024175  0.6661000379223121  0.765913682456838  1.0000
  O   O55       1.0  0.0017175485024160573  0.8338999620776882  0.2659136824568382  1.0000
  O   O56       1.0  0.0017175485024159914  0.16610003792231323  0.7659136824568391  1.0000
  O   O57       1.0  0.45312898570982707  0.9968872667760272  0.29605859158025344  1.0000
  O   O58       1.0  0.4531289857098271  0.0031127332239724304  0.7960585915802529  1.0000
  O   O59       1.0  0.9531289857098274  0.4968872667760273  0.29605859158025377  1.0000
  O   O60       1.0  0.9531289857098265  0.5031127332239741  0.7960585915802537  1.0000
  O   O61       1.0  0.5394339666978777  0.6470150829216579  0.476773907469573  1.0000
  O   O62       1.0  0.5394339666978782  0.35298491707834234  0.9767739074695726  1.0000
  O   O63       1.0  0.03943396669787759  0.14701508292165735  0.47677390746957277  1.0000
  O   O64       1.0  0.0394339666978774  0.8529849170783431  0.9767739074695719  1.0000
  O   O65       1.0  0.39486005524706874  0.8391251591296506  0.1324065709244094  1.0000
  O   O66       1.0  0.3948600552470696  0.1608748408703491  0.6324065709244097  1.0000
  O   O67       1.0  0.8948600552470679  0.33912515912965074  0.13240657092440927  1.0000
  O   O68       1.0  0.8948600552470676  0.660874840870348  0.6324065709244097  1.0000
  O   O69       1.0  0.778376075524701  0.9890059398737575  0.45808285727150494  1.0000
  O   O70       1.0  0.7783760755246983  0.01099406012624355  0.9580828572715032  1.0000
  O   O71       1.0  0.27837607552470056  0.48900593987375707  0.45808285727150516  1.0000
  O   O72       1.0  0.27837607552470045  0.5109940601262443  0.9580828572715036  1.0000
  O   O73       1.0  0.6140238653166582  0.45953623170974656  0.6351710228232169  1.0000
  O   O74       1.0  0.6140238653166579  0.5404637682902528  0.1351710228232188  1.0000
  O   O75       1.0  0.11402386531665826  0.9595362317097488  0.6351710228232171  1.0000
  O   O76       1.0  0.11402386531665845  0.04046376829025358  0.13517102282321866  1.0000
  O   O77       1.0  0.37051615683376743  0.8376578545295439  0.4322008042107841  1.0000
  O   O78       1.0  0.37051615683376665  0.16234214547045728  0.9322008042107821  1.0000
  O   O79       1.0  0.8705161568337688  0.3376578545295426  0.43220080421078405  1.0000
  O   O80       1.0  0.8705161568337674  0.6623421454704572  0.9322008042107826  1.0000
  O   O81       1.0  0.7145997708724159  0.8149885708428166  0.5976943901570253  1.0000
  O   O82       1.0  0.7145997708724146  0.18501142915718471  0.09769439015702566  1.0000
  O   O83       1.0  0.2145997708724141  0.31498857084281556  0.5976943901570249  1.0000
  O   O84       1.0  0.21459977087241408  0.685011429157184  0.09769439015702558  1.0000
  Li  Li1       1.0  0.6420095041981753  0.6699144072540633  0.7182936691971956  1.0000
  Li  Li2       1.0  0.6420095041981744  0.3300855927459362  0.21829366919719695  1.0000
  Li  Li3       1.0  0.14200950419817543  0.16991440725406443  0.7182936691971956  1.0000
  Li  Li4       1.0  0.1420095041981755  0.8300855927459364  0.21829366919719678  1.0000
  Li  Li5       1.0  0.3300193044038416  0.31192573204971585  0.035841236823126205  1.0000
  Li  Li6       1.0  0.33001930440384136  0.6880742679502846  0.5358412368231258  1.0000
  Li  Li7       1.0  0.8300193044038422  0.8119257320497163  0.035841236823126246  1.0000
  Li  Li8       1.0  0.830019304403843  0.18807426795028412  0.5358412368231259  1.0000
  Li  Li9       1.0  0.5209989411182555  0.18296451292741603  0.3724241978761974  1.0000
  Li  Li10      1.0  0.5209989411182563  0.8170354870725846  0.8724241978761971  1.0000
  Li  Li11      1.0  0.02099894111825546  0.6829645129274163  0.37242419787619674  1.0000
  Li  Li12      1.0  0.02099894111825564  0.31703548707258417  0.8724241978761973  1.0000
