data_image0
_chemical_formula_structural       Li4Al4O8
_chemical_formula_sum              "Li4 Al4 O8"
_cell_length_a       5.23028
_cell_length_b       5.23028
_cell_length_c       6.32877
_cell_angle_alpha    90
_cell_angle_beta     90
_cell_angle_gamma    90

_space_group_name_H-M_alt    "P 1"
_space_group_IT_number       1

loop_
  _space_group_symop_operation_xyz
  'x, y, z'

loop_
  _atom_site_type_symbol
  _atom_site_label
  _atom_site_symmetry_multiplicity
  _atom_site_fract_x
  _atom_site_fract_y
  _atom_site_fract_z
  _atom_site_occupancy
  Li  Li1       1.0  0.31426  0.68574  0.75000  1.0000
  Li  Li2       1.0  0.68574  0.31426  0.25000  1.0000
  Li  Li3       1.0  0.18574  0.18574  0.50000  1.0000
  Li  Li4       1.0  0.81426  0.81426  0.00000  1.0000
  Al  Al1       1.0  0.67665  0.32335  0.75000  1.0000
  Al  Al2       1.0  0.32335  0.67665  0.25000  1.0000
  Al  Al3       1.0  0.82335  0.82335  0.50000  1.0000
  Al  Al4       1.0  0.17665  0.17665  0.00000  1.0000
  O   O1        1.0  0.83803  0.20897  0.97719  1.0000
  O   O2        1.0  0.16197  0.79103  0.47719  1.0000
  O   O3        1.0  0.70897  0.66197  0.72719  1.0000
  O   O4        1.0  0.29103  0.33803  0.22719  1.0000
  O   O5        1.0  0.79103  0.16197  0.52281  1.0000
  O   O6        1.0  0.20897  0.83803  0.02281  1.0000
  O   O7        1.0  0.66197  0.70897  0.27281  1.0000
  O   O8        1.0  0.33803  0.29103  0.77281  1.0000
