data_image0
_chemical_formula_structural       Li4Al4O8
_chemical_formula_sum              "Li4 Al4 O8"
_cell_length_a       5.230288394137436
_cell_length_b       5.230288394137436
_cell_length_c       6.3287566555919055
_cell_angle_alpha    90.0
_cell_angle_beta     90.0
_cell_angle_gamma    90.0

_space_group_name_H-M_alt    "P 1"
_space_group_IT_number       1

loop_
  _space_group_symop_operation_xyz
  'x, y, z'

loop_
  _atom_site_type_symbol
  _atom_site_label
  _atom_site_symmetry_multiplicity
  _atom_site_fract_x
  _atom_site_fract_y
  _atom_site_fract_z
  _atom_site_occupancy
  Li  Li1       1.0  0.31425984868858103  0.6857401513114186  0.7500000000000002  1.0000
  Li  Li2       1.0  0.6857401513114186  0.31425984868858087  0.25  1.0000
  Li  Li3       1.0  0.18574015131141872  0.18574015131141866  0.5  1.0000
  Li  Li4       1.0  0.8142598486885813  0.8142598486885811  7.613939013754339e-32  1.0000
  Al  Al1       1.0  0.676650398050136  0.3233496019498639  0.7500000000000002  1.0000
  Al  Al2       1.0  0.323349601949864  0.6766503980501359  0.25  1.0000
  Al  Al3       1.0  0.8233496019498638  0.8233496019498635  0.5  1.0000
  Al  Al4       1.0  0.17665039805013608  0.17665039805013585  0.0  1.0000
  O   O1        1.0  0.8380320351380854  0.2089743732382189  0.9771931248416506  1.0000
  O   O2        1.0  0.16196796486191503  0.7910256267617807  0.4771931248416505  1.0000
  O   O3        1.0  0.7089743732382191  0.6619679648619144  0.7271931248416509  1.0000
  O   O4        1.0  0.2910256267617809  0.33803203513808505  0.22719312484165052  1.0000
  O   O5        1.0  0.7910256267617809  0.16196796486191484  0.5228068751583496  1.0000
  O   O6        1.0  0.208974373238219  0.8380320351380852  0.02280687515834952  1.0000
  O   O7        1.0  0.6619679648619146  0.708974373238219  0.2728068751583495  1.0000
  O   O8        1.0  0.33803203513808516  0.29102562676178073  0.7728068751583494  1.0000
