data_image0
_chemical_formula_structural       Li4Al4O8
_chemical_formula_sum              "Li4 Al4 O8"
_cell_length_a       5.230282302438077
_cell_length_b       5.230282302438079
_cell_length_c       6.328768201316726
_cell_angle_alpha    90.0
_cell_angle_beta     90.0
_cell_angle_gamma    90.0

_space_group_name_H-M_alt    "P 1"
_space_group_IT_number       1

loop_
  _space_group_symop_operation_xyz
  'x, y, z'

loop_
  _atom_site_type_symbol
  _atom_site_label
  _atom_site_symmetry_multiplicity
  _atom_site_fract_x
  _atom_site_fract_y
  _atom_site_fract_z
  _atom_site_occupancy
  Li  Li1       1.0  0.31425937737390197  0.6857406226260981  0.7500000000000003  1.0000
  Li  Li2       1.0  0.6857406226260984  0.31425937737390175  0.24999999999999997  1.0000
  Li  Li3       1.0  0.18574062262609806  0.18574062262609792  0.49999999999999994  1.0000
  Li  Li4       1.0  0.8142593773739017  0.8142593773739019  7.519728339811275e-32  1.0000
  Al  Al1       1.0  0.6766503397678022  0.3233496602321981  0.7500000000000003  1.0000
  Al  Al2       1.0  0.32334966023219835  0.6766503397678016  0.24999999999999997  1.0000
  Al  Al3       1.0  0.8233496602321982  0.823349660232198  0.49999999999999994  1.0000
  Al  Al4       1.0  0.1766503397678018  0.17665033976780142  0.0  1.0000
  O   O1        1.0  0.8380315309653527  0.20897427086409248  0.9771930062261743  1.0000
  O   O2        1.0  0.16196846903464782  0.7910257291359079  0.4771930062261747  1.0000
  O   O3        1.0  0.7089742708640927  0.6619684690346469  0.7271930062261743  1.0000
  O   O4        1.0  0.2910257291359078  0.3380315309653522  0.22719300622617467  1.0000
  O   O5        1.0  0.7910257291359081  0.16196846903464768  0.5228069937738252  1.0000
  O   O6        1.0  0.20897427086409257  0.8380315309653517  0.02280699377382553  1.0000
  O   O7        1.0  0.6619684690346473  0.7089742708640925  0.27280699377382556  1.0000
  O   O8        1.0  0.33803153096535254  0.2910257291359076  0.7728069937738259  1.0000
