data_image0
_chemical_formula_structural       Fe12V24O84Li20
_chemical_formula_sum              "Fe12 V24 O84 Li20"
_cell_length_a       13.87553
_cell_length_b       8.376018
_cell_length_c       14.403454999999997
_cell_angle_alpha    90.0
_cell_angle_beta     95.873993
_cell_angle_gamma    90.0

_space_group_name_H-M_alt    "P 1"
_space_group_IT_number       1

loop_
  _space_group_symop_operation_xyz
  'x, y, z'

loop_
  _atom_site_type_symbol
  _atom_site_label
  _atom_site_symmetry_multiplicity
  _atom_site_fract_x
  _atom_site_fract_y
  _atom_site_fract_z
  _atom_site_occupancy
  Fe  Fe1       1.0  0.4961997022181291  0.8096424770738132  0.37433998772570576  1.0000
  Fe  Fe2       1.0  0.4961997022181289  0.19035752292618657  0.8743399877257048  1.0000
  Fe  Fe3       1.0  0.996199702218129  0.3096424770738136  0.37433998772570576  1.0000
  Fe  Fe4       1.0  0.9961997022181288  0.6903575229261867  0.8743399877257048  1.0000
  Fe  Fe5       1.0  0.8506646039405538  0.8149618415852105  0.5361848849023204  1.0000
  Fe  Fe6       1.0  0.850664603940554  0.18503815841478904  0.036184884902320386  1.0000
  Fe  Fe7       1.0  0.35066460394055415  0.3149618415852109  0.5361848849023204  1.0000
  Fe  Fe8       1.0  0.3506646039405542  0.6850381584147894  0.036184884902320386  1.0000
  Fe  Fe9       1.0  0.7197019117124391  0.3235880089778775  0.7057929941198349  1.0000
  Fe  Fe10      1.0  0.719701911712439  0.6764119910221231  0.20579299411983495  1.0000
  Fe  Fe11      1.0  0.21970191171243902  0.8235880089778768  0.7057929941198349  1.0000
  Fe  Fe12      1.0  0.21970191171243914  0.1764119910221227  0.20579299411983495  1.0000
  V   V1        1.0  0.4409044921793771  0.03222545556328808  0.1687343837806191  1.0000
  V   V2        1.0  0.440904492179377  0.9677745444367127  0.6687343837806187  1.0000
  V   V3        1.0  0.9409044921793777  0.5322254555632883  0.16873438378061914  1.0000
  V   V4        1.0  0.9409044921793774  0.46777454443671224  0.6687343837806187  1.0000
  V   V5        1.0  0.6946816628961335  0.9540382281666979  0.35098698880859536  1.0000
  V   V6        1.0  0.6946816628961336  0.04596177183330307  0.8509869888085958  1.0000
  V   V7        1.0  0.194681662896134  0.4540382281666971  0.35098698880859525  1.0000
  V   V8        1.0  0.19468166289613412  0.5459617718333032  0.8509869888085961  1.0000
  V   V9        1.0  0.5716137703514419  0.4628835617417869  0.5114578159499893  1.0000
  V   V10       1.0  0.5716137703514419  0.5371164382582131  0.01145781594998957  1.0000
  V   V11       1.0  0.07161377035144191  0.9628835617417872  0.5114578159499893  1.0000
  V   V12       1.0  0.0716137703514419  0.03711643825821316  0.01145781594998957  1.0000
  V   V13       1.0  0.6511199414349699  0.9567114876663764  0.5601022354253186  1.0000
  V   V14       1.0  0.6511199414349698  0.043288512333623456  0.06010223542531873  1.0000
  V   V15       1.0  0.15111994143496996  0.4567114876663767  0.5601022354253186  1.0000
  V   V16       1.0  0.15111994143496982  0.5432885123336233  0.06010223542531873  1.0000
  V   V17       1.0  0.2747679240338856  0.9661335255026191  0.40148712600981534  1.0000
  V   V18       1.0  0.2747679240338855  0.033866474497380936  0.9014871260098153  1.0000
  V   V19       1.0  0.7747679240338854  0.46613352550261955  0.40148712600981545  1.0000
  V   V20       1.0  0.7747679240338854  0.5338664744973807  0.9014871260098152  1.0000
  V   V21       1.0  0.4038484187248581  0.45864888691808936  0.2415266872586618  1.0000
  V   V22       1.0  0.4038484187248578  0.5413511130819103  0.7415266872586617  1.0000
  V   V23       1.0  0.9038484187248583  0.9586488869180892  0.2415266872586618  1.0000
  V   V24       1.0  0.9038484187248582  0.041351113081910446  0.7415266872586617  1.0000
  O   O1        1.0  0.47584140894899823  0.33512480560660596  0.4760315798813336  1.0000
  O   O2        1.0  0.4758414089489982  0.6648751943933942  0.9760315798813335  1.0000
  O   O3        1.0  0.9758414089489983  0.8351248056066057  0.4760315798813336  1.0000
  O   O4        1.0  0.9758414089489983  0.1648751943933941  0.9760315798813338  1.0000
  O   O5        1.0  0.3417461268483603  0.15153821792261116  0.137616732538202  1.0000
  O   O6        1.0  0.3417461268483603  0.8484617820773883  0.6376167325382018  1.0000
  O   O7        1.0  0.8417461268483607  0.6515382179226115  0.137616732538202  1.0000
  O   O8        1.0  0.8417461268483607  0.3484617820773888  0.6376167325382017  1.0000
  O   O9        1.0  0.24486864108062706  0.9688105135439089  0.28126907337701024  1.0000
  O   O10       1.0  0.24486864108062698  0.031189486456091996  0.7812690733770101  1.0000
  O   O11       1.0  0.7448686410806276  0.4688105135439082  0.28126907337701035  1.0000
  O   O12       1.0  0.7448686410806276  0.531189486456092  0.7812690733770102  1.0000
  O   O13       1.0  0.39137449380657735  0.4901506199263316  0.1206654440471513  1.0000
  O   O14       1.0  0.3913744938065772  0.5098493800736684  0.620665444047151  1.0000
  O   O15       1.0  0.8913744938065772  0.9901506199263309  0.1206654440471513  1.0000
  O   O16       1.0  0.8913744938065769  0.009849380073668555  0.620665444047151  1.0000
  O   O17       1.0  0.4244573180094128  0.6537361309381257  0.28523864469101623  1.0000
  O   O18       1.0  0.42445731800941255  0.34626386906187473  0.7852386446910156  1.0000
  O   O19       1.0  0.9244573180094129  0.15373613093812516  0.28523864469101623  1.0000
  O   O20       1.0  0.9244573180094127  0.8462638690618745  0.7852386446910156  1.0000
  O   O21       1.0  0.3032749300387775  0.152399046351007  0.4428149863829608  1.0000
  O   O22       1.0  0.3032749300387775  0.8476009536489932  0.9428149863829611  1.0000
  O   O23       1.0  0.8032749300387775  0.6523990463510067  0.4428149863829607  1.0000
  O   O24       1.0  0.8032749300387774  0.34760095364899307  0.9428149863829609  1.0000
  O   O25       1.0  0.5463381466736107  0.8871878172219733  0.6220559281214961  1.0000
  O   O26       1.0  0.5463381466736107  0.11281218277802679  0.12205592812149656  1.0000
  O   O27       1.0  0.04633814667361078  0.38718781722197343  0.6220559281214961  1.0000
  O   O28       1.0  0.04633814667361079  0.6128121827780266  0.12205592812149656  1.0000
  O   O29       1.0  0.6177414175479851  0.7934132218169779  0.29910042658831437  1.0000
  O   O30       1.0  0.6177414175479855  0.2065867781830221  0.7991004265883138  1.0000
  O   O31       1.0  0.11774141754798537  0.29341322181697793  0.29910042658831437  1.0000
  O   O32       1.0  0.11774141754798538  0.706586778183022  0.7991004265883138  1.0000
  O   O33       1.0  0.5858491020419786  0.9752339120177249  0.4406241330320811  1.0000
  O   O34       1.0  0.5858491020419786  0.0247660879822744  0.9406241330320809  1.0000
  O   O35       1.0  0.08584910204197838  0.47523391201772575  0.4406241330320811  1.0000
  O   O36       1.0  0.08584910204197838  0.5247660879822739  0.9406241330320809  1.0000
  O   O37       1.0  0.680978458934838  0.13257515691982166  0.3001147719643761  1.0000
  O   O38       1.0  0.680978458934838  0.8674248430801781  0.8001147719643757  1.0000
  O   O39       1.0  0.1809784589348377  0.6325751569198218  0.3001147719643761  1.0000
  O   O40       1.0  0.18097845893483783  0.3674248430801786  0.8001147719643757  1.0000
  O   O41       1.0  0.6740116186292434  0.13649667323231682  0.6079459846159644  1.0000
  O   O42       1.0  0.6740116186292436  0.8635033267676833  0.10794598461596401  1.0000
  O   O43       1.0  0.17401161862924333  0.6364966732323167  0.6079459846159643  1.0000
  O   O44       1.0  0.17401161862924347  0.36350332676768315  0.10794598461596401  1.0000
  O   O45       1.0  0.6735040902081484  0.3895548860574229  0.4565171520051052  1.0000
  O   O46       1.0  0.6735040902081488  0.6104451139425768  0.9565171520051049  1.0000
  O   O47       1.0  0.17350409020814858  0.889554886057423  0.45651715200510523  1.0000
  O   O48       1.0  0.17350409020814855  0.11044511394257701  0.9565171520051049  1.0000
  O   O49       1.0  0.29760891750552976  0.3747686491419174  0.28594736702726214  1.0000
  O   O50       1.0  0.29760891750552954  0.625231350858083  0.7859473670272618  1.0000
  O   O51       1.0  0.7976089175055296  0.874768649141917  0.28594736702726214  1.0000
  O   O52       1.0  0.7976089175055292  0.12523135085808285  0.7859473670272614  1.0000
  O   O53       1.0  0.5011567839211369  0.34255944085727463  0.272616001390488  1.0000
  O   O54       1.0  0.5011567839211369  0.6574405591427253  0.7726160013904875  1.0000
  O   O55       1.0  0.0011567839211368892  0.8425594408572749  0.27261600139048797  1.0000
  O   O56       1.0  0.0011567839211368332  0.1574405591427256  0.7726160013904877  1.0000
  O   O57       1.0  0.4588109949285636  0.005398261013674064  0.2890169722764906  1.0000
  O   O58       1.0  0.45881099492856336  0.9946017389863255  0.78901697227649  1.0000
  O   O59       1.0  0.9588109949285633  0.505398261013674  0.2890169722764905  1.0000
  O   O60       1.0  0.9588109949285631  0.49460173898632587  0.7890169722764901  1.0000
  O   O61       1.0  0.5429386815368525  0.6506344396861524  0.47078836962777393  1.0000
  O   O62       1.0  0.5429386815368527  0.34936556031384725  0.970788369627774  1.0000
  O   O63       1.0  0.04293868153685288  0.15063443968615287  0.47078836962777404  1.0000
  O   O64       1.0  0.042938681536852936  0.8493655603138476  0.9707883696277743  1.0000
  O   O65       1.0  0.4210105137801449  0.8403902802997116  0.12446494333923984  1.0000
  O   O66       1.0  0.4210105137801449  0.15960971970028784  0.62446494333924  1.0000
  O   O67       1.0  0.9210105137801448  0.3403902802997123  0.12446494333923985  1.0000
  O   O68       1.0  0.9210105137801449  0.6596097197002881  0.62446494333924  1.0000
  O   O69       1.0  0.7635274739574653  0.9782447728228131  0.4660370756920966  1.0000
  O   O70       1.0  0.7635274739574653  0.021755227177186913  0.9660370756920968  1.0000
  O   O71       1.0  0.26352747395746606  0.4782447728228129  0.4660370756920966  1.0000
  O   O72       1.0  0.2635274739574661  0.521755227177187  0.9660370756920966  1.0000
  O   O73       1.0  0.6023496073193805  0.45625227490808923  0.6321885024654046  1.0000
  O   O74       1.0  0.6023496073193806  0.5437477250919108  0.1321885024654047  1.0000
  O   O75       1.0  0.1023496073193805  0.9562522749080894  0.6321885024654046  1.0000
  O   O76       1.0  0.10234960731938049  0.04374772509191062  0.1321885024654047  1.0000
  O   O77       1.0  0.3713812722483969  0.8362735941615137  0.4326771634368121  1.0000
  O   O78       1.0  0.3713812722483969  0.1637264058384866  0.9326771634368113  1.0000
  O   O79       1.0  0.8713812722483968  0.33627359416151364  0.4326771634368121  1.0000
  O   O80       1.0  0.8713812722483966  0.6637264058384862  0.9326771634368113  1.0000
  O   O81       1.0  0.7289298665053969  0.8027550176859762  0.6080469952976609  1.0000
  O   O82       1.0  0.7289298665053964  0.1972449823140233  0.10804699529766136  1.0000
  O   O83       1.0  0.22892986650539665  0.30275501768597696  0.6080469952976609  1.0000
  O   O84       1.0  0.22892986650539662  0.6972449823140237  0.1080469952976614  1.0000
  Li  Li1       1.0  0.6060231108982413  0.6827844044589274  0.692726545430242  1.0000
  Li  Li2       1.0  0.6060231108982416  0.31721559554107315  0.19272654543024173  1.0000
  Li  Li3       1.0  0.10602311089824154  0.18278440445892713  0.692726545430242  1.0000
  Li  Li4       1.0  0.10602311089824135  0.8172155955410726  0.19272654543024173  1.0000
  Li  Li5       1.0  0.3367687232842403  0.31513724132492604  0.033530084411052784  1.0000
  Li  Li6       1.0  0.33676872328424057  0.6848627586750737  0.5335300844110525  1.0000
  Li  Li7       1.0  0.8367687232842405  0.8151372413249262  0.033530084411052784  1.0000
  Li  Li8       1.0  0.8367687232842405  0.18486275867507407  0.5335300844110525  1.0000
  Li  Li9       1.0  0.51188940854795  0.18328343784125328  0.3758445860509655  1.0000
  Li  Li10      1.0  0.5118894085479498  0.8167165621587466  0.8758445860509645  1.0000
  Li  Li11      1.0  0.01188940854794993  0.6832834378412532  0.37584458605096577  1.0000
  Li  Li12      1.0  0.011889408547949907  0.3167165621587468  0.8758445860509645  1.0000
  Li  Li13      1.0  0.2901473910844934  0.7561385236734897  0.23795095723705936  1.0000
  Li  Li14      1.0  0.2901473910844935  0.2438614763265103  0.7379509572370593  1.0000
  Li  Li15      1.0  0.7901473910844933  0.2561385236734898  0.2379509572370594  1.0000
  Li  Li16      1.0  0.7901473910844936  0.7438614763265102  0.7379509572370593  1.0000
  Li  Li17      1.0  0.023151108817843307  0.20734789540609744  0.1908984559012995  1.0000
  Li  Li18      1.0  0.023151108817843248  0.7926521045939023  0.6908984559012991  1.0000
  Li  Li19      1.0  0.5231511088178432  0.7073478954060975  0.19089845590129956  1.0000
  Li  Li20      1.0  0.5231511088178431  0.2926521045939029  0.6908984559012991  1.0000
