data_image0
_chemical_formula_structural       Li21PSn2P3S24
_chemical_formula_sum              "Li21 P4 Sn2 S24"
_cell_length_a       8.898098944192302
_cell_length_b       8.894908586540728
_cell_length_c       12.98502081899769
_cell_angle_alpha    89.89798960795744
_cell_angle_beta     89.84227761868705
_cell_angle_gamma    90.46502519349646

_space_group_name_H-M_alt    "P 1"
_space_group_IT_number       1

loop_
  _space_group_symop_operation_xyz
  'x, y, z'

loop_
  _atom_site_type_symbol
  _atom_site_label
  _atom_site_symmetry_multiplicity
  _atom_site_fract_x
  _atom_site_fract_y
  _atom_site_fract_z
  _atom_site_occupancy
  Li  Li1       1.0  0.23893261688812764  0.26394906133922486  0.8105733182718443  1.0000
  Li  Li2       1.0  0.2596316454864657  0.7590362929702925  0.1846729157564234  1.0000
  Li  Li3       1.0  0.2331576860813556  0.7296231906225542  0.8471837276125415  1.0000
  Li  Li4       1.0  0.31469868305991955  0.35877641730805515  0.2606637395214888  1.0000
  Li  Li5       1.0  0.7563076971050259  0.23387933894660423  0.6686899943765696  1.0000
  Li  Li6       1.0  0.6970604022855725  0.6366755480837923  0.258736360548278  1.0000
  Li  Li7       1.0  0.4937475391148924  0.9974712206975247  0.42200023865660913  1.0000
  Li  Li8       1.0  0.4641421788326377  0.9646511039767192  0.9461954256171535  1.0000
  Li  Li9       1.0  0.0020102146452914615  0.49341678690800134  0.06359120175012756  1.0000
  Li  Li10      1.0  0.9811354118843879  0.49548251291700346  0.5728177277319799  1.0000
  Li  Li11      1.0  0.2591321753841357  0.2463897149100217  0.5071577025403612  1.0000
  Li  Li12      1.0  0.729302036750256  0.2052122267665116  0.9363497455576106  1.0000
  Li  Li13      1.0  0.7498524865478646  0.7614496973211647  0.5001887819119135  1.0000
  Li  Li14      1.0  0.7553595262645961  0.7466700587620992  0.810696562502878  1.0000
  Li  Li15      1.0  0.7033064207116104  0.25488198294601444  0.4195936392332263  1.0000
  Li  Li16      1.0  0.24928678880526722  0.7467775363438034  0.4977769833897429  1.0000
  Li  Li17      1.0  0.2319096164589646  0.2579239870280614  0.051918384262408884  1.0000
  Li  Li18      1.0  0.796433511845931  0.75743724019647  0.06188371609276677  1.0000
  Li  Li19      1.0  0.4980278201241719  0.5622104242438575  0.7168815236296242  1.0000
  Li  Li20      1.0  0.009222298923966811  0.017402300547268896  0.2643814386472671  1.0000
  Li  Li21      1.0  0.008990312621880134  0.9906070152148262  0.7327065894963047  1.0000
  P   P1        1.0  0.5073297320815743  0.0067127377372652635  0.1802578159172313  1.0000
  Sn  Sn1       1.0  0.49620007147307355  0.9888798445011061  0.6840264843133536  1.0000
  Sn  Sn2       1.0  0.00993651648718282  0.5010112657969636  0.3131651336923812  1.0000
  P   P2        1.0  0.9852790687405686  0.49275442250974216  0.8216277503546062  1.0000
  P   P3        1.0  0.4943888537317068  0.5064890766139125  9.507360945757053e-06  1.0000
  P   P4        1.0  0.002679296241149494  0.005522165319446858  0.5009912636044479  1.0000
  S   S1        1.0  0.49950113764809273  0.6804589895070919  0.8920429848793925  1.0000
  S   S2        1.0  0.8183568749069033  0.004689403576117596  0.4062438279917435  1.0000
  S   S3        1.0  0.46929333901631654  0.3056422674297883  0.9228075138598074  1.0000
  S   S4        1.0  0.19410991801200822  0.003466686317775353  0.4120402277638063  1.0000
  S   S5        1.0  0.9979905704653427  0.8113770605597744  0.5882423842444842  1.0000
  S   S6        1.0  0.309061058281432  0.5186399267780718  0.09629482631076663  1.0000
  S   S7        1.0  0.01234577785803755  0.19055700053563407  0.5978057362084106  1.0000
  S   S8        1.0  0.6858077802286109  0.5058997680714101  0.08515462282862701  1.0000
  S   S9        1.0  0.5001902619997594  0.76065104281019  0.5833316635710837  1.0000
  S   S10       1.0  0.6786683149541518  0.001530341370817171  0.07406062118291047  1.0000
  S   S11       1.0  0.5169057645140519  0.2038693415888337  0.5688338923445792  1.0000
  S   S12       1.0  0.30540300998390385  0.000530569280222894  0.09987766726837671  1.0000
  S   S13       1.0  0.9782139089344036  0.6836274648620726  0.9138942473754513  1.0000
  S   S14       1.0  0.2275520680826279  0.4929478950373226  0.42178079362995397  1.0000
  S   S15       1.0  0.9996627030342922  0.3048354451026649  0.9141139587247452  1.0000
  S   S16       1.0  0.7869075490751247  0.5104380339978046  0.41946010169563663  1.0000
  S   S17       1.0  0.5208187523161211  0.18783091951784728  0.27661402440679395  1.0000
  S   S18       1.0  0.2776581089125327  0.9930553013242742  0.7964312023179743  1.0000
  S   S19       1.0  0.4972382349777076  0.8177888955544608  0.27424821903177343  1.0000
  S   S20       1.0  0.725178631023252  0.016942111671020433  0.7858491377909279  1.0000
  S   S21       1.0  0.04449628184932504  0.2884033672447664  0.20122955346819726  1.0000
  S   S22       1.0  0.7989793753160745  0.49464200413793774  0.7265532278111935  1.0000
  S   S23       1.0  0.9800244335475645  0.7233030004675698  0.20533562294041796  1.0000
  S   S24       1.0  0.17697559276475774  0.507780029827815  0.7318162681647656  1.0000
