data_image0
_chemical_formula_structural       Li4GaAl3O8
_chemical_formula_sum              "Li4 Ga1 Al3 O8"
_cell_length_a       5.1685
_cell_length_b       5.1685
_cell_length_c       6.2565
_cell_angle_alpha    90.0
_cell_angle_beta     90.0
_cell_angle_gamma    90.0

_space_group_name_H-M_alt    "P 1"
_space_group_IT_number       1

loop_
  _space_group_symop_operation_xyz
  'x, y, z'

loop_
  _atom_site_type_symbol
  _atom_site_label
  _atom_site_symmetry_multiplicity
  _atom_site_fract_x
  _atom_site_fract_y
  _atom_site_fract_z
  _atom_site_occupancy
  Li  Li1       1.0  0.31306749711837456  0.6869325069078035  0.7499999917672198  1.0000
  Li  Li2       1.0  0.6831354646529818  0.316864541187712  0.250000001006606  1.0000
  Li  Li3       1.0  0.18643329126805433  0.18341901203850838  0.4950555404165071  1.0000
  Li  Li4       1.0  0.8165810047472716  0.8135667026255501  0.004944462010159633  1.0000
  Ga  Ga1       1.0  0.6755717098148095  0.32442831743394956  0.7499999848226243  1.0000
  Al  Al1       1.0  0.3266410589837838  0.6733589466865978  0.25000001874590067  1.0000
  Al  Al2       1.0  0.8268692588894166  0.8241859020427202  0.4984371824219166  1.0000
  Al  Al3       1.0  0.17581411140668116  0.17313074635988987  0.0015628231921617818  1.0000
  O   O1        1.0  0.8340609823064727  0.201045044812534  0.9918878606454902  1.0000
  O   O2        1.0  0.16715204355161506  0.7894937107570048  0.479352246984521  1.0000
  O   O3        1.0  0.7044772236783321  0.6830672290150506  0.7338102078560277  1.0000
  O   O4        1.0  0.29631522475267413  0.3325128682148234  0.22869319621979298  1.0000
  O   O5        1.0  0.7989549420727171  0.16593900050507565  0.508112131918298  1.0000
  O   O6        1.0  0.21050629669503293  0.8328479357567069  0.020647778724554942  1.0000
  O   O7        1.0  0.6674871459757593  0.7036847661698173  0.2713068153233524  1.0000
  O   O8        1.0  0.3169327737064746  0.29552275957214047  0.7661897622472259  1.0000
