data_image0
_chemical_formula_structural       Li4Zr8P12O48
_chemical_formula_sum              "Li4 Zr8 P12 O48"
_cell_length_a       8.955560390806056
_cell_length_b       9.083427921789669
_cell_length_c       12.613693527466394
_cell_angle_alpha    90.0
_cell_angle_beta     90.56437933579606
_cell_angle_gamma    90.0

_space_group_name_H-M_alt    "P 1"
_space_group_IT_number       1

loop_
  _space_group_symop_operation_xyz
  'x, y, z'

loop_
  _atom_site_type_symbol
  _atom_site_label
  _atom_site_symmetry_multiplicity
  _atom_site_fract_x
  _atom_site_fract_y
  _atom_site_fract_z
  _atom_site_occupancy
  Li  Li1       1.0  0.2123732891701421  0.7244633340617388  0.17945350748553432  1.0000
  Li  Li2       1.0  0.7123732891701429  0.7755366659382609  0.6794535074855327  1.0000
  Li  Li3       1.0  0.7876267108298598  0.2755366659382609  0.8205464925144654  1.0000
  Li  Li4       1.0  0.2876267108298588  0.2244633340617389  0.3205464925144649  1.0000
  Zr  Zr1       1.0  0.7464363538780315  0.9550864711665433  0.8902617462129939  1.0000
  Zr  Zr2       1.0  0.24643635387803003  0.5449135288334563  0.3902617462129945  1.0000
  Zr  Zr3       1.0  0.25356364612197063  0.04491352883345638  0.10973825378700447  1.0000
  Zr  Zr4       1.0  0.7535636461219714  0.45508647116654277  0.6097382537870051  1.0000
  Zr  Zr5       1.0  0.7502492931888728  0.5253029787360618  0.1210472083723689  1.0000
  Zr  Zr6       1.0  0.2502492931888723  0.9746970212639368  0.6210472083723686  1.0000
  Zr  Zr7       1.0  0.24975070681112865  0.47469702126393776  0.8789527916276307  1.0000
  Zr  Zr8       1.0  0.7497507068111298  0.025302978736062378  0.37895279162763074  1.0000
  P   P1        1.0  0.8839483017783555  0.5977226672193554  0.854892701231821  1.0000
  P   P2        1.0  0.3839483017783543  0.9022773327806434  0.3548927012318212  1.0000
  P   P3        1.0  0.1160516982216465  0.402277332780644  0.14510729876817768  1.0000
  P   P4        1.0  0.6160516982216487  0.09772266721935575  0.6451072987681777  1.0000
  P   P5        1.0  0.9018628237961086  0.8789365364164126  0.1461386842079485  1.0000
  P   P6        1.0  0.40186282379610744  0.621063463583587  0.6461386842079485  1.0000
  P   P7        1.0  0.09813717620389269  0.12106346358358737  0.853861315792049  1.0000
  P   P8        1.0  0.598137176203893  0.3789365364164126  0.35386131579205055  1.0000
  P   P9        1.0  0.4637865621539347  0.7504869398415767  0.010742096365651318  1.0000
  P   P10       1.0  0.9637865621539355  0.7495130601584237  0.5107420963656515  1.0000
  P   P11       1.0  0.5362134378460669  0.24951306015842326  0.9892579036343474  1.0000
  P   P12       1.0  0.036213437846065524  0.2504869398415765  0.4892579036343476  1.0000
  O   O1        1.0  0.8496918774093497  0.9217138672845722  0.032456710157266457  1.0000
  O   O2        1.0  0.34969187740934954  0.5782861327154267  0.5324567101572659  1.0000
  O   O3        1.0  0.15030812259065143  0.07828613271542716  0.9675432898427327  1.0000
  O   O4        1.0  0.6503081225906523  0.4217138672845723  0.4675432898427324  1.0000
  O   O5        1.0  0.8207386740291729  0.7520928113920817  0.8219236525543973  1.0000
  O   O6        1.0  0.320738674029171  0.7479071886079175  0.3219236525543979  1.0000
  O   O7        1.0  0.1792613259708293  0.24790718860791763  0.1780763474456016  1.0000
  O   O8        1.0  0.67926132597083  0.2520928113920819  0.6780763474456003  1.0000
  O   O9        1.0  0.5540785533402142  0.8610332278892516  0.9436864805591634  1.0000
  O   O10       1.0  0.054078553340212665  0.6389667721107474  0.44368648055916377  1.0000
  O   O11       1.0  0.4459214466597879  0.13896677211074737  0.05631351944083599  1.0000
  O   O12       1.0  0.94592144665979  0.3610332278892527  0.5563135194408354  1.0000
  O   O13       1.0  0.9258904571657288  0.0996401096583022  0.8460623373483221  1.0000
  O   O14       1.0  0.42589045716572677  0.40035989034169733  0.346062337348323  1.0000
  O   O15       1.0  0.0741095428342739  0.9003598903416964  0.15393766265167647  1.0000
  O   O16       1.0  0.5741095428342747  0.5996401096583013  0.6539376626516756  1.0000
  O   O17       1.0  0.674157273609055  0.9809696822080864  0.7269618151141939  1.0000
  O   O18       1.0  0.17415727360905361  0.519030317791914  0.2269618151141951  1.0000
  O   O19       1.0  0.32584272639094697  0.01903031779191431  0.2730381848858041  1.0000
  O   O20       1.0  0.8258427263909472  0.4809696822080851  0.7730381848858052  1.0000
  O   O21       1.0  0.6497697021871982  0.16397825550449466  0.9191439076664224  1.0000
  O   O22       1.0  0.14976970218719793  0.3360217444955052  0.419143907666422  1.0000
  O   O23       1.0  0.35023029781280296  0.8360217444955053  0.08085609233357706  1.0000
  O   O24       1.0  0.850230297812805  0.6639782555044942  0.5808560923335769  1.0000
  O   O25       1.0  0.8245960499911196  0.5552961413234407  0.9640445129616433  1.0000
  O   O26       1.0  0.3245960499911186  0.9447038586765593  0.46404451296164384  1.0000
  O   O27       1.0  0.17540395000888218  0.444703858676559  0.03595548703835559  1.0000
  O   O28       1.0  0.6754039500088834  0.055296141323440164  0.5359554870383552  1.0000
  O   O29       1.0  0.8688876952284139  0.7154217873968377  0.16673560812042285  1.0000
  O   O30       1.0  0.36888769522841325  0.7845782126031619  0.6667356081204218  1.0000
  O   O31       1.0  0.13111230477158825  0.28457821260316246  0.8332643918795754  1.0000
  O   O32       1.0  0.6311123047715895  0.21542178739683757  0.33326439187957685  1.0000
  O   O33       1.0  0.5672567541042428  0.6625556315119707  0.08466357787189742  1.0000
  O   O34       1.0  0.06725675410424192  0.8374443684880286  0.5846635778718969  1.0000
  O   O35       1.0  0.43274324589575924  0.3374443684880285  0.9153364221281003  1.0000
  O   O36       1.0  0.9327432458957584  0.16255563151197105  0.41533642212810157  1.0000
  O   O37       1.0  0.9448475462676584  0.39857477441068945  0.1465662654738674  1.0000
  O   O38       1.0  0.4448475462676582  0.10142522558931019  0.6465662654738664  1.0000
  O   O39       1.0  0.055152453732342406  0.6014252255893102  0.8534337345261311  1.0000
  O   O40       1.0  0.5551524537323431  0.8985747744106899  0.3534337345261321  1.0000
  O   O41       1.0  0.6759757339411525  0.4793845874417007  0.2736976615923618  1.0000
  O   O42       1.0  0.17597573394115112  0.020615412558298817  0.7736976615923623  1.0000
  O   O43       1.0  0.32402426605884965  0.5206154125582979  0.7263023384076369  1.0000
  O   O44       1.0  0.8240242660588497  0.9793845874417006  0.22630233840763742  1.0000
  O   O45       1.0  0.6257416680626825  0.34900072458043735  0.06448724610992013  1.0000
  O   O46       1.0  0.12574166806268153  0.1509992754195624  0.5644872461099198  1.0000
  O   O47       1.0  0.37425833193731967  0.6509992754195622  0.9355127538900784  1.0000
  O   O48       1.0  0.8742583319373193  0.8490007245804375  0.43551275389007915  1.0000
