data_image0
_chemical_formula_structural       P18O72Li6Ge12
_chemical_formula_sum              "P18 O72 Li6 Ge12"
_cell_length_a       8.401484889141026
_cell_length_b       8.401484889141027
_cell_length_c       20.68422397517083
_cell_angle_alpha    90.0
_cell_angle_beta     90.0
_cell_angle_gamma    119.99999999999999

_space_group_name_H-M_alt    "P 1"
_space_group_IT_number       1

loop_
  _space_group_symop_operation_xyz
  'x, y, z'

loop_
  _atom_site_type_symbol
  _atom_site_label
  _atom_site_symmetry_multiplicity
  _atom_site_fract_x
  _atom_site_fract_y
  _atom_site_fract_z
  _atom_site_occupancy
  P   P1        1.0  0.28836259488678667  1.2197372125077389e-31  0.25000000000000006  1.0000
  P   P2        1.0  0.7116374051132137  0.7116374051132134  0.25000000000000006  1.0000
  P   P3        1.0  0.9999999999999998  0.28836259488678656  0.25000000000000006  1.0000
  P   P4        1.0  0.2883625948867866  0.28836259488678645  0.7499999999999997  1.0000
  P   P5        1.0  0.9999999999999994  0.7116374051132132  0.7499999999999997  1.0000
  P   P6        1.0  0.7116374051132139  0.0  0.7499999999999997  1.0000
  P   P7        1.0  0.9550292615534532  0.33333333333333354  0.5833333333333333  1.0000
  P   P8        1.0  0.37830407177988035  0.04497073844654673  0.5833333333333333  1.0000
  P   P9        1.0  0.6666666666666673  0.6216959282201203  0.5833333333333333  1.0000
  P   P10       1.0  0.9550292615534537  0.6216959282201203  0.08333333333333337  1.0000
  P   P11       1.0  0.6666666666666667  0.04497073844654666  0.08333333333333337  1.0000
  P   P12       1.0  0.37830407177988007  0.3333333333333336  0.08333333333333337  1.0000
  P   P13       1.0  0.6216959282201203  0.6666666666666671  0.9166666666666669  1.0000
  P   P14       1.0  0.044970738446546595  0.3783040717798801  0.9166666666666669  1.0000
  P   P15       1.0  0.33333333333333326  0.9550292615534535  0.9166666666666669  1.0000
  P   P16       1.0  0.6216959282201201  0.9550292615534536  0.41666666666666674  1.0000
  P   P17       1.0  0.33333333333333337  0.3783040717798801  0.41666666666666674  1.0000
  P   P18       1.0  0.04497073844654672  0.6666666666666672  0.41666666666666674  1.0000
  O   O1        1.0  0.19643759659252516  0.014292447688691406  0.3120420686495173  1.0000
  O   O2        1.0  0.8178548510961664  0.8035624034074749  0.31204206864951733  1.0000
  O   O3        1.0  0.9857075523113092  0.18214514890383376  0.31204206864951733  1.0000
  O   O4        1.0  0.19643759659252533  0.18214514890383368  0.8120420686495173  1.0000
  O   O5        1.0  0.9857075523113081  0.8035624034074748  0.8120420686495173  1.0000
  O   O6        1.0  0.8178548510961666  0.014292447688691388  0.8120420686495173  1.0000
  O   O7        1.0  0.8035624034074751  0.9857075523113089  0.6879579313504829  1.0000
  O   O8        1.0  0.18214514890383357  0.19643759659252513  0.6879579313504829  1.0000
  O   O9        1.0  0.014292447688691236  0.8178548510961658  0.6879579313504829  1.0000
  O   O10       1.0  0.8035624034074748  0.817854851096166  0.18795793135048308  1.0000
  O   O11       1.0  0.014292447688691248  0.19643759659252527  0.1879579313504831  1.0000
  O   O12       1.0  0.18214514890383376  0.9857075523113091  0.18795793135048308  1.0000
  O   O13       1.0  0.863104263259192  0.3476257810220247  0.6453754019828504  1.0000
  O   O14       1.0  0.48452151776283287  0.13689573674080804  0.6453754019828504  1.0000
  O   O15       1.0  0.652374218977975  0.515478482237167  0.6453754019828504  1.0000
  O   O16       1.0  0.8631042632591922  0.5154784822371671  0.14537540198285037  1.0000
  O   O17       1.0  0.6523742189779749  0.1368957367408081  0.14537540198285037  1.0000
  O   O18       1.0  0.48452151776283287  0.34762578102202474  0.14537540198285037  1.0000
  O   O19       1.0  0.4702290700741415  0.3190408856446419  0.02129126468381637  1.0000
  O   O20       1.0  0.8488118155705001  0.5297709299258586  0.021291264683816372  1.0000
  O   O21       1.0  0.6809591143553585  0.15118818442949955  0.02129126468381637  1.0000
  O   O22       1.0  0.47022907007414144  0.1511881844294995  0.5212912646838164  1.0000
  O   O23       1.0  0.6809591143553585  0.5297709299258586  0.5212912646838164  1.0000
  O   O24       1.0  0.8488118155705007  0.3190408856446419  0.5212912646838164  1.0000
  O   O25       1.0  0.5297709299258583  0.6809591143553576  0.978708735316184  1.0000
  O   O26       1.0  0.1511881844294992  0.4702290700741412  0.978708735316184  1.0000
  O   O27       1.0  0.31904088564464167  0.8488118155705006  0.978708735316184  1.0000
  O   O28       1.0  0.5297709299258587  0.8488118155705006  0.4787087353161838  1.0000
  O   O29       1.0  0.31904088564464167  0.4702290700741413  0.4787087353161838  1.0000
  O   O30       1.0  0.15118818442949913  0.6809591143553576  0.4787087353161838  1.0000
  O   O31       1.0  0.13689573674080807  0.6523742189779755  0.35462459801714935  1.0000
  O   O32       1.0  0.515478482237167  0.8631042632591919  0.3546245980171494  1.0000
  O   O33       1.0  0.3476257810220247  0.4845215177628324  0.3546245980171494  1.0000
  O   O34       1.0  0.13689573674080766  0.48452151776283237  0.8546245980171494  1.0000
  O   O35       1.0  0.3476257810220246  0.8631042632591919  0.8546245980171494  1.0000
  O   O36       1.0  0.5154784822371672  0.6523742189779753  0.8546245980171494  1.0000
  O   O37       1.0  0.025042717811172236  0.8405070088583547  0.4184547315133095  1.0000
  O   O38       1.0  0.8154642910471823  0.9749572821888272  0.4184547315133095  1.0000
  O   O39       1.0  0.15949299114164503  0.18453570895281776  0.4184547315133095  1.0000
  O   O40       1.0  0.025042717811172448  0.18453570895281768  0.9184547315133106  1.0000
  O   O41       1.0  0.15949299114164459  0.9749572821888268  0.9184547315133106  1.0000
  O   O42       1.0  0.8154642910471824  0.8405070088583545  0.9184547315133106  1.0000
  O   O43       1.0  0.9749572821888278  0.15949299114164514  0.5815452684866903  1.0000
  O   O44       1.0  0.18453570895281776  0.025042717811172663  0.5815452684866903  1.0000
  O   O45       1.0  0.8405070088583546  0.8154642910471818  0.5815452684866903  1.0000
  O   O46       1.0  0.9749572821888268  0.815464291047182  0.08154526848669018  1.0000
  O   O47       1.0  0.8405070088583549  0.025042717811172687  0.08154526848669016  1.0000
  O   O48       1.0  0.18453570895281782  0.15949299114164522  0.08154526848669018  1.0000
  O   O49       1.0  0.6917093844778394  0.1738403421916881  0.7517880648466431  1.0000
  O   O50       1.0  0.48213095771384906  0.3082906155221608  0.7517880648466431  1.0000
  O   O51       1.0  0.8261596578083115  0.517869042286151  0.7517880648466431  1.0000
  O   O52       1.0  0.6917093844778391  0.517869042286151  0.2517880648466434  1.0000
  O   O53       1.0  0.826159657808312  0.30829061552216075  0.2517880648466434  1.0000
  O   O54       1.0  0.48213095771384895  0.173840342191688  0.2517880648466434  1.0000
  O   O55       1.0  0.6416239488554943  0.49282632447497865  0.9148786018200226  1.0000
  O   O56       1.0  0.8512023756194848  0.3583760511445059  0.9148786018200226  1.0000
  O   O57       1.0  0.5071736755250211  0.14879762438051525  0.9148786018200226  1.0000
  O   O58       1.0  0.6416239488554936  0.1487976243805154  0.4148786018200239  1.0000
  O   O59       1.0  0.5071736755250215  0.358376051144506  0.4148786018200239  1.0000
  O   O60       1.0  0.8512023756194848  0.4928263244749787  0.414878601820024  1.0000
  O   O61       1.0  0.358376051144506  0.5071736755250215  0.08512139817997656  1.0000
  O   O62       1.0  0.14879762438051508  0.6416239488554937  0.08512139817997656  1.0000
  O   O63       1.0  0.4928263244749785  0.8512023756194846  0.08512139817997656  1.0000
  O   O64       1.0  0.35837605114450594  0.8512023756194845  0.5851213981799764  1.0000
  O   O65       1.0  0.49282632447497815  0.6416239488554935  0.5851213981799764  1.0000
  O   O66       1.0  0.14879762438051525  0.5071736755250212  0.5851213981799763  1.0000
  O   O67       1.0  0.30829061552216025  0.8261596578083114  0.2482119351533567  1.0000
  O   O68       1.0  0.517869042286151  0.6917093844778391  0.2482119351533567  1.0000
  O   O69       1.0  0.17384034219168792  0.4821309577138489  0.2482119351533567  1.0000
  O   O70       1.0  0.3082906155221606  0.4821309577138489  0.7482119351533568  1.0000
  O   O71       1.0  0.17384034219168773  0.6917093844778391  0.7482119351533568  1.0000
  O   O72       1.0  0.517869042286151  0.8261596578083112  0.7482119351533568  1.0000
  Li  Li1       1.0  0.9999999999999999  0.0  0.49999999999999983  1.0000
  Li  Li2       1.0  0.9999999999999999  5.55111512312579e-17  4.339944978305251e-17  1.0000
  Li  Li3       1.0  0.6666666666666666  0.3333333333333335  0.8333333333333331  1.0000
  Li  Li4       1.0  0.6666666666666665  0.3333333333333336  0.3333333333333334  1.0000
  Li  Li5       1.0  0.3333333333333333  0.6666666666666672  0.1666666666666667  1.0000
  Li  Li6       1.0  0.3333333333333333  0.6666666666666671  0.6666666666666669  1.0000
  Ge  Ge1       1.0  0.9999999999999999  0.0  0.35898304104529327  1.0000
  Ge  Ge2       1.0  0.0  0.0  0.8589830410452937  1.0000
  Ge  Ge3       1.0  0.9999999999999999  1.2400325725305796e-16  0.6410169589547072  1.0000
  Ge  Ge4       1.0  0.9999999999999999  0.0  0.14101695895470673  1.0000
  Ge  Ge5       1.0  0.6666666666666666  0.3333333333333335  0.6923163743786265  1.0000
  Ge  Ge6       1.0  0.6666666666666666  0.3333333333333336  0.19231637437862661  1.0000
  Ge  Ge7       1.0  0.6666666666666666  0.3333333333333336  0.9743502922880392  1.0000
  Ge  Ge8       1.0  0.6666666666666666  0.33333333333333354  0.4743502922880405  1.0000
  Ge  Ge9       1.0  0.33333333333333337  0.6666666666666672  0.02564970771195995  1.0000
  Ge  Ge10      1.0  0.33333333333333337  0.6666666666666671  0.52564970771196  1.0000
  Ge  Ge11      1.0  0.33333333333333337  0.6666666666666673  0.3076836256213734  1.0000
  Ge  Ge12      1.0  0.33333333333333337  0.6666666666666671  0.8076836256213732  1.0000
