data_image0
_chemical_formula_structural       Li6Ti12P18O72
_chemical_formula_sum              "Li6 Ti12 P18 O72"
_cell_length_a       8.628195495372967
_cell_length_b       8.628195495372994
_cell_length_c       23.39063666400646
_cell_angle_alpha    89.99999999999999
_cell_angle_beta     90.0
_cell_angle_gamma    119.99999999999991

_space_group_name_H-M_alt    "P 1"
_space_group_IT_number       1

loop_
  _space_group_symop_operation_xyz
  'x, y, z'

loop_
  _atom_site_type_symbol
  _atom_site_label
  _atom_site_symmetry_multiplicity
  _atom_site_fract_x
  _atom_site_fract_y
  _atom_site_fract_z
  _atom_site_occupancy
  Li  Li1       1.0  0.0  0.9999999999999999  0.5000000000000002  1.0000
  Li  Li2       1.0  0.0  0.0  1.2764240762157508e-16  1.0000
  Li  Li3       1.0  0.6666666666666666  0.33333333333333315  0.8333333333333325  1.0000
  Li  Li4       1.0  0.666666666666667  0.3333333333333334  0.33333333333333326  1.0000
  Li  Li5       1.0  0.3333333333333334  0.6666666666666671  0.16666666666666666  1.0000
  Li  Li6       1.0  0.33333333333333337  0.6666666666666669  0.6666666666666664  1.0000
  Ti  Ti1       1.0  1.6918912450607475e-17  0.0  0.3545817113764649  1.0000
  Ti  Ti2       1.0  1.4319503976270107e-16  0.9999999999999999  0.8545817113764652  1.0000
  Ti  Ti3       1.0  3.1816229710168596e-17  4.622332842386686e-17  0.6454182886235356  1.0000
  Ti  Ti4       1.0  0.0  0.0  0.1454182886235349  1.0000
  Ti  Ti5       1.0  0.6666666666666669  0.3333333333333332  0.6879150447097984  1.0000
  Ti  Ti6       1.0  0.666666666666667  0.3333333333333335  0.18791504470979867  1.0000
  Ti  Ti7       1.0  0.6666666666666667  0.3333333333333332  0.9787516219568676  1.0000
  Ti  Ti8       1.0  0.6666666666666669  0.3333333333333333  0.4787516219568683  1.0000
  Ti  Ti9       1.0  0.3333333333333335  0.6666666666666672  0.021248378043131892  1.0000
  Ti  Ti10      1.0  0.3333333333333335  0.6666666666666669  0.5212483780431314  1.0000
  Ti  Ti11      1.0  0.3333333333333334  0.6666666666666671  0.3120849552902014  1.0000
  Ti  Ti12      1.0  0.33333333333333337  0.6666666666666667  0.8120849552902003  1.0000
  P   P1        1.0  0.7158992338212977  0.7158992338212976  0.7499999999999996  1.0000
  P   P2        1.0  0.9999999999999998  0.2841007661787016  0.7499999999999996  1.0000
  P   P3        1.0  0.28410076617870167  0.0  0.7499999999999996  1.0000
  P   P4        1.0  0.7158992338212982  0.0  0.25000000000000017  1.0000
  P   P5        1.0  0.28410076617870167  0.2841007661787019  0.2500000000000001  1.0000
  P   P6        1.0  8.881784197001252e-16  0.7158992338212983  0.25000000000000017  1.0000
  P   P7        1.0  0.3825659004879647  0.04923256715463138  0.08333333333333344  1.0000
  P   P8        1.0  0.6666666666666665  0.6174340995120351  0.08333333333333341  1.0000
  P   P9        1.0  0.9507674328453689  0.3333333333333336  0.08333333333333341  1.0000
  P   P10       1.0  0.3825659004879649  0.33333333333333326  0.5833333333333329  1.0000
  P   P11       1.0  0.9507674328453691  0.6174340995120349  0.5833333333333329  1.0000
  P   P12       1.0  0.6666666666666674  0.0492325671546314  0.5833333333333329  1.0000
  P   P13       1.0  0.04923256715463125  0.38256590048796446  0.41666666666666635  1.0000
  P   P14       1.0  0.3333333333333332  0.9507674328453684  0.4166666666666663  1.0000
  P   P15       1.0  0.6174340995120351  0.666666666666667  0.4166666666666663  1.0000
  P   P16       1.0  0.049232567154631514  0.6666666666666667  0.9166666666666669  1.0000
  P   P17       1.0  0.6174340995120348  0.9507674328453681  0.9166666666666669  1.0000
  P   P18       1.0  0.33333333333333287  0.3825659004879643  0.9166666666666669  1.0000
  O   O1        1.0  0.8398129121591313  0.7945236789041509  0.8028562210720472  1.0000
  O   O2        1.0  0.95471076674502  0.16018708784086802  0.8028562210720472  1.0000
  O   O3        1.0  0.2054763210958491  0.045289233254980556  0.8028562210720472  1.0000
  O   O4        1.0  0.839812912159132  0.04528923325498059  0.3028562210720477  1.0000
  O   O5        1.0  0.20547632109584885  0.1601870878408683  0.3028562210720477  1.0000
  O   O6        1.0  0.9547107667450196  0.7945236789041512  0.3028562210720477  1.0000
  O   O7        1.0  0.1601870878408682  0.20547632109584887  0.19714377892795246  1.0000
  O   O8        1.0  0.04528923325498011  0.8398129121591319  0.19714377892795257  1.0000
  O   O9        1.0  0.7945236789041505  0.9547107667450191  0.1971437789279525  1.0000
  O   O10       1.0  0.16018708784086816  0.9547107667450189  0.6971437789279521  1.0000
  O   O11       1.0  0.7945236789041512  0.8398129121591316  0.6971437789279521  1.0000
  O   O12       1.0  0.04528923325498036  0.2054763210958486  0.6971437789279521  1.0000
  O   O13       1.0  0.5064795788257983  0.12785701223748439  0.13618955440538102  1.0000
  O   O14       1.0  0.6213774334116867  0.49352042117420236  0.13618955440538102  1.0000
  O   O15       1.0  0.8721429877625158  0.3786225665883143  0.136189554405381  1.0000
  O   O16       1.0  0.5064795788257982  0.37862256658831395  0.6361895544053804  1.0000
  O   O17       1.0  0.8721429877625158  0.49352042117420203  0.6361895544053804  1.0000
  O   O18       1.0  0.6213774334116862  0.1278570122374842  0.6361895544053804  1.0000
  O   O19       1.0  0.8268537545075352  0.5388096544291823  0.5304771122612857  1.0000
  O   O20       1.0  0.7119558999216471  0.17314624549246482  0.5304771122612857  1.0000
  O   O21       1.0  0.4611903455708174  0.28804410007835246  0.5304771122612856  1.0000
  O   O22       1.0  0.8268537545075348  0.28804410007835224  0.030477112261285244  1.0000
  O   O23       1.0  0.4611903455708176  0.17314624549246452  0.030477112261285244  1.0000
  O   O24       1.0  0.7119558999216468  0.538809654429182  0.030477112261285244  1.0000
  O   O25       1.0  0.17314624549246518  0.461190345570818  0.4695228877387136  1.0000
  O   O26       1.0  0.2880441000783524  0.8268537545075345  0.4695228877387135  1.0000
  O   O27       1.0  0.5388096544291826  0.7119558999216477  0.4695228877387135  1.0000
  O   O28       1.0  0.17314624549246496  0.7119558999216479  0.9695228877387144  1.0000
  O   O29       1.0  0.5388096544291819  0.8268537545075348  0.9695228877387143  1.0000
  O   O30       1.0  0.2880441000783528  0.46119034557081817  0.9695228877387144  1.0000
  O   O31       1.0  0.49352042117420136  0.8721429877625153  0.8638104455946191  1.0000
  O   O32       1.0  0.37862256658831334  0.5064795788257976  0.8638104455946191  1.0000
  O   O33       1.0  0.12785701223748383  0.6213774334116856  0.8638104455946191  1.0000
  O   O34       1.0  0.4935204211742017  0.6213774334116858  0.3638104455946187  1.0000
  O   O35       1.0  0.1278570122374841  0.5064795788257979  0.3638104455946189  1.0000
  O   O36       1.0  0.3786225665883137  0.8721429877625155  0.3638104455946188  1.0000
  O   O37       1.0  0.19329580402397947  0.1664683286435003  0.5940250132130026  1.0000
  O   O38       1.0  0.9731725246195213  0.8067041959760208  0.5940250132130026  1.0000
  O   O39       1.0  0.8335316713565002  0.026827475380479214  0.5940250132130026  1.0000
  O   O40       1.0  0.19329580402397953  0.026827475380479256  0.0940250132130034  1.0000
  O   O41       1.0  0.8335316713565002  0.8067041959760212  0.09402501321300337  1.0000
  O   O42       1.0  0.9731725246195203  0.1664683286435005  0.09402501321300337  1.0000
  O   O43       1.0  0.8067041959760202  0.8335316713565003  0.40597498678699684  1.0000
  O   O44       1.0  0.026827475380479218  0.1932958040239796  0.40597498678699684  1.0000
  O   O45       1.0  0.16646832864349995  0.9731725246195203  0.40597498678699684  1.0000
  O   O46       1.0  0.8067041959760198  0.9731725246195199  0.9059749867869966  1.0000
  O   O47       1.0  0.1664683286435002  0.19329580402397936  0.9059749867869966  1.0000
  O   O48       1.0  0.02682747538047986  0.8335316713565002  0.9059749867869967  1.0000
  O   O49       1.0  0.8599624706906451  0.4998016619768336  0.9273583465463364  1.0000
  O   O50       1.0  0.6398391912861877  0.14003752930935354  0.9273583465463363  1.0000
  O   O51       1.0  0.5001983380231663  0.36016080871381245  0.9273583465463364  1.0000
  O   O52       1.0  0.859962470690646  0.36016080871381273  0.42735834654633553  1.0000
  O   O53       1.0  0.5001983380231667  0.1400375293093537  0.42735834654633553  1.0000
  O   O54       1.0  0.6398391912861868  0.4998016619768339  0.4273583465463357  1.0000
  O   O55       1.0  0.47337086264268635  0.16686500468983256  0.7393083201203303  1.0000
  O   O56       1.0  0.6934941420471455  0.5266291373573119  0.7393083201203304  1.0000
  O   O57       1.0  0.8331349953101664  0.3065058579528535  0.7393083201203303  1.0000
  O   O58       1.0  0.47337086264268696  0.30650585795285373  0.23930832012033001  1.0000
  O   O59       1.0  0.8331349953101672  0.5266291373573122  0.23930832012033001  1.0000
  O   O60       1.0  0.693494142047145  0.16686500468983267  0.23930832012033001  1.0000
  O   O61       1.0  0.5266291373573125  0.8331349953101665  0.2606916798796701  1.0000
  O   O62       1.0  0.30650585795285396  0.473370862642687  0.2606916798796701  1.0000
  O   O63       1.0  0.16686500468983284  0.6934941420471462  0.2606916798796701  1.0000
  O   O64       1.0  0.5266291373573125  0.6934941420471458  0.7606916798796697  1.0000
  O   O65       1.0  0.16686500468983279  0.4733708626426868  0.7606916798796696  1.0000
  O   O66       1.0  0.3065058579528534  0.8331349953101662  0.7606916798796696  1.0000
  O   O67       1.0  0.14003752930935356  0.5001983380231663  0.07264165345366357  1.0000
  O   O68       1.0  0.3601608087138126  0.8599624706906466  0.07264165345366355  1.0000
  O   O69       1.0  0.49980166197683373  0.6398391912861876  0.07264165345366358  1.0000
  O   O70       1.0  0.14003752930935354  0.6398391912861873  0.5726416534536636  1.0000
  O   O71       1.0  0.4998016619768336  0.8599624706906462  0.5726416534536636  1.0000
  O   O72       1.0  0.36016080871381234  0.5001983380231659  0.5726416534536638  1.0000
