data_image0
_chemical_formula_structural       Li4Zr8P12O48
_chemical_formula_sum              "Li4 Zr8 P12 O48"
_cell_length_a       8.81277
_cell_length_b       8.945199999999998
_cell_length_c       12.375000000000002
_cell_angle_alpha    90.0
_cell_angle_beta     90.80100000000002
_cell_angle_gamma    90.0

_space_group_name_H-M_alt    "P 1"
_space_group_IT_number       1

loop_
  _space_group_symop_operation_xyz
  'x, y, z'

loop_
  _atom_site_type_symbol
  _atom_site_label
  _atom_site_symmetry_multiplicity
  _atom_site_fract_x
  _atom_site_fract_y
  _atom_site_fract_z
  _atom_site_occupancy
  Li  Li1       1.0  0.20020775461309293  0.7218092481177802  0.17659261004746854  1.0000
  Li  Li2       1.0  0.7002077546130928  0.7781907518822196  0.6765926100474696  1.0000
  Li  Li3       1.0  0.799792245386907  0.2781907518822198  0.8234073899525305  1.0000
  Li  Li4       1.0  0.29979224538690713  0.2218092481177802  0.3234073899525311  1.0000
  Zr  Zr1       1.0  0.7455338339148911  0.9555391008545365  0.8886307206220001  1.0000
  Zr  Zr2       1.0  0.2455338339148913  0.5444608991454657  0.38863072062199916  1.0000
  Zr  Zr3       1.0  0.25446616608510847  0.044460899145464944  0.11136927937800083  1.0000
  Zr  Zr4       1.0  0.754466166085109  0.4555391008545343  0.6113692793780009  1.0000
  Zr  Zr5       1.0  0.7499338976933214  0.5273570063975977  0.12334255834495914  1.0000
  Zr  Zr6       1.0  0.24993389769332144  0.9726429936024037  0.6233425583449593  1.0000
  Zr  Zr7       1.0  0.2500661023066786  0.47264299360240225  0.8766574416550407  1.0000
  Zr  Zr8       1.0  0.7500661023066785  0.027357006397597236  0.37665744165504067  1.0000
  P   P1        1.0  0.8886557790780782  0.6035525997031674  0.855010125361607  1.0000
  P   P2        1.0  0.3886557790780782  0.896447400296832  0.35501012536160786  1.0000
  P   P3        1.0  0.11134422092192152  0.3964474002968323  0.14498987463839244  1.0000
  P   P4        1.0  0.6113442209219219  0.10355259970316756  0.6449898746383921  1.0000
  P   P5        1.0  0.9024025762793256  0.8777276401721581  0.1472173474938011  1.0000
  P   P6        1.0  0.40240257627932546  0.622272359827842  0.6472173474938019  1.0000
  P   P7        1.0  0.09759742372067483  0.12227235982784199  0.8527826525061982  1.0000
  P   P8        1.0  0.5975974237206744  0.37772764017215804  0.3527826525061987  1.0000
  P   P9        1.0  0.4643265447504216  0.7506206214968297  0.011370501890263337  1.0000
  P   P10       1.0  0.9643265447504197  0.7493793785031704  0.5113705018902635  1.0000
  P   P11       1.0  0.5356734552495784  0.24937937850317068  0.9886294981097371  1.0000
  P   P12       1.0  0.035673455249579  0.25062062149682934  0.48862949810973655  1.0000
  O   O1        1.0  0.8598922189741776  0.9090837472757394  0.027774953011245322  1.0000
  O   O2        1.0  0.35989221897417667  0.5909162527242617  0.5277749530112454  1.0000
  O   O3        1.0  0.14010778102582275  0.09091625272426138  0.972225046988755  1.0000
  O   O4        1.0  0.6401077810258224  0.4090837472757384  0.4722250469887544  1.0000
  O   O5        1.0  0.8187772313738394  0.7543488353246648  0.815666293161324  1.0000
  O   O6        1.0  0.3187772313738392  0.7456511646753353  0.3156662931613242  1.0000
  O   O7        1.0  0.18122276862616027  0.24565116467533507  0.18433370683867573  1.0000
  O   O8        1.0  0.6812227686261605  0.2543488353246649  0.6843337068386759  1.0000
  O   O9        1.0  0.5485318886290398  0.8685085989560859  0.9440366877337553  1.0000
  O   O10       1.0  0.04853188862903998  0.631491401043914  0.44403668773375515  1.0000
  O   O11       1.0  0.45146811137096016  0.1314914010439143  0.055963312266244875  1.0000
  O   O12       1.0  0.9514681113709602  0.36850859895608595  0.5559633122662448  1.0000
  O   O13       1.0  0.9258841236700739  0.0922156688489707  0.8354295515209118  1.0000
  O   O14       1.0  0.4258841236700737  0.40778433115102947  0.33542955152091236  1.0000
  O   O15       1.0  0.07411587632992651  0.9077843311510283  0.16457044847908778  1.0000
  O   O16       1.0  0.5741158763299268  0.5922156688489705  0.6645704484790883  1.0000
  O   O17       1.0  0.6588090986851581  0.9803348787920213  0.727611163377408  1.0000
  O   O18       1.0  0.15880909868515816  0.5196651212079779  0.2276111633774077  1.0000
  O   O19       1.0  0.3411909013148418  0.019665121207978503  0.2723888366225922  1.0000
  O   O20       1.0  0.8411909013148418  0.48033487879202214  0.7723888366225922  1.0000
  O   O21       1.0  0.66622399240629  0.17242120312598058  0.9261974571981453  1.0000
  O   O22       1.0  0.16622399240628977  0.3275787968740195  0.4261974571981453  1.0000
  O   O23       1.0  0.3337760075937105  0.8275787968740188  0.07380254280185476  1.0000
  O   O24       1.0  0.8337760075937101  0.6724212031259813  0.5738025428018547  1.0000
  O   O25       1.0  0.822182880931904  0.560390506761633  0.964061071051177  1.0000
  O   O26       1.0  0.3221828809319044  0.9396094932383666  0.46406107105117617  1.0000
  O   O27       1.0  0.1778171190680956  0.4396094932383665  0.03593892894882356  1.0000
  O   O28       1.0  0.677817119068096  0.06039050676163331  0.5359389289488238  1.0000
  O   O29       1.0  0.8784533426846135  0.7118666297953796  0.17372203405153958  1.0000
  O   O30       1.0  0.3784533426846135  0.7881333702046205  0.6737220340515393  1.0000
  O   O31       1.0  0.12154665731538672  0.28813337020462015  0.8262779659484608  1.0000
  O   O32       1.0  0.6215466573153865  0.2118666297953796  0.3262779659484604  1.0000
  O   O33       1.0  0.5714193045820717  0.6784510133022239  0.0946443629849356  1.0000
  O   O34       1.0  0.07141930458207191  0.8215489866977761  0.5946443629849356  1.0000
  O   O35       1.0  0.4285806954179279  0.32154898669777626  0.9053556370150653  1.0000
  O   O36       1.0  0.9285806954179283  0.17845101330222377  0.4053556370150644  1.0000
  O   O37       1.0  0.9382455020898395  0.383297447770978  0.13978266856000782  1.0000
  O   O38       1.0  0.43824550208983837  0.11670255222902189  0.6397826685600081  1.0000
  O   O39       1.0  0.061754497910161785  0.616702552229022  0.8602173314399929  1.0000
  O   O40       1.0  0.5617544979101616  0.883297447770978  0.360217331439992  1.0000
  O   O41       1.0  0.6902712901534893  0.481839839120292  0.2812650800247635  1.0000
  O   O42       1.0  0.19027129015348893  0.01816016087970775  0.7812650800247628  1.0000
  O   O43       1.0  0.309728709846511  0.518160160879708  0.7187349199752371  1.0000
  O   O44       1.0  0.8097287098465107  0.9818398391202924  0.21873491997523656  1.0000
  O   O45       1.0  0.6055170587297277  0.36326566677696753  0.06680399280255256  1.0000
  O   O46       1.0  0.1055170587297277  0.13673433322303227  0.5668039928025527  1.0000
  O   O47       1.0  0.3944829412702727  0.6367343332230324  0.9331960071974478  1.0000
  O   O48       1.0  0.8944829412702723  0.8632656667769675  0.4331960071974473  1.0000
