data_image0
_chemical_formula_structural       Fe12V24O84Li12
_chemical_formula_sum              "Fe12 V24 O84 Li12"
_cell_length_a       13.463
_cell_length_b       8.1882
_cell_length_c       14.386000000000001
_cell_angle_alpha    90.0
_cell_angle_beta     96.547
_cell_angle_gamma    90.0

_space_group_name_H-M_alt    "P 1"
_space_group_IT_number       1

loop_
  _space_group_symop_operation_xyz
  'x, y, z'

loop_
  _atom_site_type_symbol
  _atom_site_label
  _atom_site_symmetry_multiplicity
  _atom_site_fract_x
  _atom_site_fract_y
  _atom_site_fract_z
  _atom_site_occupancy
  Fe  Fe1       1.0  0.4959638756787269  0.804779743734863  0.3710416733761046  1.0000
  Fe  Fe2       1.0  0.4959638756787269  0.19522025626513717  0.871041673376105  1.0000
  Fe  Fe3       1.0  0.9959638756787261  0.30477974373486305  0.3710416733761046  1.0000
  Fe  Fe4       1.0  0.9959638756787262  0.6952202562651368  0.871041673376105  1.0000
  Fe  Fe5       1.0  0.849841618794046  0.8224480081234071  0.5402011466905523  1.0000
  Fe  Fe6       1.0  0.8498416187940461  0.17755199187659262  0.040201146690552594  1.0000
  Fe  Fe7       1.0  0.3498416187940473  0.3224480081234076  0.5402011466905523  1.0000
  Fe  Fe8       1.0  0.3498416187940468  0.6775519918765929  0.040201146690552594  1.0000
  Fe  Fe9       1.0  0.7013714605821867  0.30809393901428367  0.7095418318298918  1.0000
  Fe  Fe10      1.0  0.7013714605821868  0.6919060609857162  0.20954183182989194  1.0000
  Fe  Fe11      1.0  0.20137146058218733  0.8080939390142841  0.7095418318298918  1.0000
  Fe  Fe12      1.0  0.2013714605821876  0.19190606098571597  0.20954183182989194  1.0000
  V   V1        1.0  0.42311496115801756  0.028544112802193922  0.1767421071227718  1.0000
  V   V2        1.0  0.4231149611580176  0.971455887197806  0.6767421071227715  1.0000
  V   V3        1.0  0.9231149611580182  0.528544112802194  0.1767421071227718  1.0000
  V   V4        1.0  0.923114961158018  0.47145588719780634  0.6767421071227715  1.0000
  V   V5        1.0  0.7041127934257343  0.9620638353574013  0.3552943005826826  1.0000
  V   V6        1.0  0.7041127934257346  0.03793616464259901  0.8552943005826833  1.0000
  V   V7        1.0  0.20411279342573355  0.4620638353574013  0.3552943005826826  1.0000
  V   V8        1.0  0.2041127934257337  0.5379361646425989  0.8552943005826833  1.0000
  V   V9        1.0  0.5717076949296213  0.45592763979124984  0.5146140551569136  1.0000
  V   V10       1.0  0.5717076949296211  0.5440723602087499  0.014614055156913577  1.0000
  V   V11       1.0  0.07170769492962081  0.9559276397912501  0.5146140551569136  1.0000
  V   V12       1.0  0.07170769492962083  0.04407236020875041  0.014614055156913573  1.0000
  V   V13       1.0  0.6274931141635378  0.9497597642912428  0.5685653961778852  1.0000
  V   V14       1.0  0.6274931141635388  0.0502402357087566  0.06856539617788558  1.0000
  V   V15       1.0  0.12749311416353792  0.44975976429124304  0.5685653961778852  1.0000
  V   V16       1.0  0.12749311416353806  0.5502402357087574  0.06856539617788558  1.0000
  V   V17       1.0  0.2737474263851166  0.9718317671920879  0.4031162161159501  1.0000
  V   V18       1.0  0.2737474263851166  0.02816823280791204  0.9031162161159498  1.0000
  V   V19       1.0  0.7737474263851167  0.4718317671920885  0.4031162161159501  1.0000
  V   V20       1.0  0.7737474263851167  0.5281682328079121  0.9031162161159498  1.0000
  V   V21       1.0  0.4082406713053346  0.46475436287327787  0.2403634463216584  1.0000
  V   V22       1.0  0.40824067130533487  0.5352456371267225  0.740363446321659  1.0000
  V   V23       1.0  0.9082406713053359  0.9647543628732775  0.2403634463216584  1.0000
  V   V24       1.0  0.9082406713053361  0.03524563712672257  0.740363446321659  1.0000
  O   O1        1.0  0.4778715677443992  0.317215872327689  0.48025252335273666  1.0000
  O   O2        1.0  0.47787156774439904  0.6827841276723118  0.9802525233527355  1.0000
  O   O3        1.0  0.977871567744399  0.8172158723276886  0.48025252335273666  1.0000
  O   O4        1.0  0.977871567744399  0.18278412767231128  0.9802525233527355  1.0000
  O   O5        1.0  0.3205222706168634  0.15166104802010674  0.14160128577761855  1.0000
  O   O6        1.0  0.32052227061686367  0.8483389519798946  0.6416012857776189  1.0000
  O   O7        1.0  0.8205222706168639  0.6516610480201056  0.14160128577761855  1.0000
  O   O8        1.0  0.820522270616864  0.34833895197989373  0.6416012857776189  1.0000
  O   O9        1.0  0.23839425465790223  0.9886769248056844  0.2836399419771654  1.0000
  O   O10       1.0  0.23839425465790198  0.011323075194317737  0.7836399419771662  1.0000
  O   O11       1.0  0.738394254657902  0.4886769248056814  0.2836399419771654  1.0000
  O   O12       1.0  0.7383942546579022  0.5113230751943191  0.7836399419771662  1.0000
  O   O13       1.0  0.397280337653489  0.48622114946934397  0.11836294928047265  1.0000
  O   O14       1.0  0.3972803376534892  0.5137788505306549  0.6183629492804719  1.0000
  O   O15       1.0  0.897280337653489  0.9862211494693423  0.11836294928047265  1.0000
  O   O16       1.0  0.8972803376534888  0.013778850530656039  0.6183629492804719  1.0000
  O   O17       1.0  0.4200290333582369  0.6531411165096779  0.2908810622503819  1.0000
  O   O18       1.0  0.4200290333582369  0.34685888349032307  0.7908810622503817  1.0000
  O   O19       1.0  0.9200290333582356  0.15314111650967774  0.2908810622503819  1.0000
  O   O20       1.0  0.9200290333582353  0.8468588834903221  0.7908810622503817  1.0000
  O   O21       1.0  0.29167632229098467  0.16252003516946817  0.4470019270409942  1.0000
  O   O22       1.0  0.29167632229098467  0.8374799648305326  0.9470019270409941  1.0000
  O   O23       1.0  0.7916763222909848  0.6625200351694676  0.4470019270409942  1.0000
  O   O24       1.0  0.791676322290985  0.33747996483053283  0.9470019270409941  1.0000
  O   O25       1.0  0.5258283135927105  0.8763764715815314  0.6256255430881795  1.0000
  O   O26       1.0  0.5258283135927105  0.1236235284184688  0.12562554308817897  1.0000
  O   O27       1.0  0.025828313592711125  0.3763764715815321  0.6256255430881795  1.0000
  O   O28       1.0  0.025828313592711143  0.6236235284184685  0.12562554308817897  1.0000
  O   O29       1.0  0.6232706268471401  0.7894298600530633  0.3070265915887078  1.0000
  O   O30       1.0  0.6232706268471401  0.21057013994693763  0.807026591588707  1.0000
  O   O31       1.0  0.12327062684714  0.289429860053063  0.3070265915887078  1.0000
  O   O32       1.0  0.1232706268471401  0.7105701399469369  0.807026591588707  1.0000
  O   O33       1.0  0.590938612058826  0.9708011748976813  0.44414501964177994  1.0000
  O   O34       1.0  0.5909386120588263  0.029198825102319127  0.9441450196417818  1.0000
  O   O35       1.0  0.09093861205882618  0.47080117489768153  0.4441450196417798  1.0000
  O   O36       1.0  0.09093861205882645  0.5291988251023189  0.9441450196417818  1.0000
  O   O37       1.0  0.6716001196261022  0.13748678072030845  0.3039524032193833  1.0000
  O   O38       1.0  0.6716001196261019  0.8625132192796916  0.8039524032193829  1.0000
  O   O39       1.0  0.17160011962610167  0.6374867807203084  0.3039524032193833  1.0000
  O   O40       1.0  0.1716001196261017  0.36251321927969177  0.8039524032193829  1.0000
  O   O41       1.0  0.6617948190983177  0.13506636882570675  0.6131096357246454  1.0000
  O   O42       1.0  0.661794819098317  0.864933631174293  0.11310963572464537  1.0000
  O   O43       1.0  0.16179481909831747  0.635066368825707  0.6131096357246454  1.0000
  O   O44       1.0  0.16179481909831725  0.3649336311742937  0.11310963572464537  1.0000
  O   O45       1.0  0.6732262631584488  0.3784113470186395  0.45621570863703037  1.0000
  O   O46       1.0  0.6732262631584497  0.6215886529813609  0.9562157086370306  1.0000
  O   O47       1.0  0.17322626315844933  0.8784113470186392  0.45621570863703037  1.0000
  O   O48       1.0  0.17322626315844925  0.12158865298136118  0.9562157086370306  1.0000
  O   O49       1.0  0.29569112239957823  0.37167139999642296  0.27977471860065756  1.0000
  O   O50       1.0  0.2956911223995781  0.6283286000035768  0.7797747186006567  1.0000
  O   O51       1.0  0.7956911223995786  0.8716713999964233  0.27977471860065756  1.0000
  O   O52       1.0  0.7956911223995786  0.12832860000357743  0.7797747186006567  1.0000
  O   O53       1.0  0.5103565616705376  0.354049156957484  0.2763404094024586  1.0000
  O   O54       1.0  0.5103565616705376  0.645950843042516  0.7763404094024584  1.0000
  O   O55       1.0  0.010356561670537744  0.8540491569574841  0.2763404094024586  1.0000
  O   O56       1.0  0.010356561670537612  0.14595084304251635  0.7763404094024584  1.0000
  O   O57       1.0  0.4529441112192991  0.010502440471527236  0.2965788881390827  1.0000
  O   O58       1.0  0.45294411121929923  0.9894975595284721  0.7965788881390826  1.0000
  O   O59       1.0  0.9529441112192981  0.5105024404715268  0.2965788881390828  1.0000
  O   O60       1.0  0.9529441112192979  0.4894975595284734  0.7965788881390826  1.0000
  O   O61       1.0  0.5406677056374856  0.6458153428831457  0.47206738914764623  1.0000
  O   O62       1.0  0.5406677056374857  0.35418465711685365  0.9720673891476465  1.0000
  O   O63       1.0  0.040667705637485556  0.14581534288314643  0.47206738914764623  1.0000
  O   O64       1.0  0.04066770563748573  0.8541846571168547  0.9720673891476465  1.0000
  O   O65       1.0  0.4065121719690752  0.8418845203592578  0.128616743498663  1.0000
  O   O66       1.0  0.4065121719690751  0.1581154796407425  0.6286167434986633  1.0000
  O   O67       1.0  0.9065121719690751  0.3418845203592579  0.128616743498663  1.0000
  O   O68       1.0  0.9065121719690755  0.6581154796407422  0.6286167434986633  1.0000
  O   O69       1.0  0.7859620649328309  0.9983595906165612  0.45741680100491766  1.0000
  O   O70       1.0  0.7859620649328309  0.0016404093834384251  0.9574168010049176  1.0000
  O   O71       1.0  0.28596206493283005  0.49835959061656226  0.45741680100491766  1.0000
  O   O72       1.0  0.2859620649328301  0.5016404093834378  0.9574168010049176  1.0000
  O   O73       1.0  0.6096793193171506  0.45907176116191484  0.6342222155567405  1.0000
  O   O74       1.0  0.6096793193171508  0.5409282388380853  0.13422221555674022  1.0000
  O   O75       1.0  0.10967931931715069  0.9590717611619148  0.6342222155567405  1.0000
  O   O76       1.0  0.10967931931715048  0.040928238838085516  0.1342222155567403  1.0000
  O   O77       1.0  0.3769521876304374  0.8510822835873496  0.4391202112122797  1.0000
  O   O78       1.0  0.3769521876304378  0.14891771641265109  0.93912021121228  1.0000
  O   O79       1.0  0.8769521876304364  0.35108228358734944  0.4391202112122797  1.0000
  O   O80       1.0  0.8769521876304364  0.6489177164126504  0.93912021121228  1.0000
  O   O81       1.0  0.7184864601486031  0.8089342333702831  0.6007111955275749  1.0000
  O   O82       1.0  0.7184864601486031  0.19106576662971747  0.10071119552757528  1.0000
  O   O83       1.0  0.21848646014860237  0.3089342333702833  0.6007111955275749  1.0000
  O   O84       1.0  0.21848646014860226  0.6910657666297171  0.10071119552757528  1.0000
  Li  Li1       1.0  0.6383858195145314  0.6737197660833841  0.7129465901320199  1.0000
  Li  Li2       1.0  0.6383858195145315  0.32628023391661615  0.2129465901320202  1.0000
  Li  Li3       1.0  0.13838581951453116  0.17371976608338405  0.7129465901320199  1.0000
  Li  Li4       1.0  0.13838581951453116  0.826280233916616  0.2129465901320202  1.0000
  Li  Li5       1.0  0.34016784381761256  0.3080770644154731  0.03471648549541589  1.0000
  Li  Li6       1.0  0.34016784381761195  0.6919229355845261  0.5347164854954156  1.0000
  Li  Li7       1.0  0.8401678438176123  0.8080770644154739  0.03471648549541589  1.0000
  Li  Li8       1.0  0.8401678438176123  0.19192293558452683  0.5347164854954156  1.0000
  Li  Li9       1.0  0.5315684479733599  0.1863590148452435  0.37299360810729837  1.0000
  Li  Li10      1.0  0.5315684479733599  0.8136409851547562  0.8729936081072974  1.0000
  Li  Li11      1.0  0.03156844797335939  0.6863590148452436  0.37299360810729837  1.0000
  Li  Li12      1.0  0.03156844797335947  0.3136409851547565  0.8729936081072974  1.0000
