data_image0
_chemical_formula_structural       Li2O24P6Ti4
_chemical_formula_sum              "Li2 O24 P6 Ti4"
_cell_length_a       8.520000257559506
_cell_length_b       8.520000257559506
_cell_length_c       8.52145611999658
_cell_angle_alpha    60.00565140158218
_cell_angle_beta     60.00565140158218
_cell_angle_gamma    59.99999999999999

_space_group_name_H-M_alt    "P 1"
_space_group_IT_number       1

loop_
  _space_group_symop_operation_xyz
  'x, y, z'

loop_
  _atom_site_type_symbol
  _atom_site_label
  _atom_site_symmetry_multiplicity
  _atom_site_fract_x
  _atom_site_fract_y
  _atom_site_fract_z
  _atom_site_occupancy
  Li  Li1       1.0  0.4999999999999998  0.5  0.5000000000000001  1.0000
  Li  Li2       1.0  0.0  3.42374188606232e-17  6.382119711190388e-17  1.0000
  O   O1        1.0  0.09461966856093598  0.8360424541046308  0.4176789777324578  1.0000
  O   O2        1.0  0.6516588996019756  0.09461966856093584  0.4176789777324578  1.0000
  O   O3        1.0  0.8360424541046299  0.6516588996019754  0.4176789777324578  1.0000
  O   O4        1.0  0.3360424541046303  0.594619668560936  0.9176789777324574  1.0000
  O   O5        1.0  0.15165889960197548  0.3360424541046307  0.9176789777324574  1.0000
  O   O6        1.0  0.5946196685609366  0.1516588996019754  0.9176789777324574  1.0000
  O   O7        1.0  0.905380331439065  0.16395754589536898  0.5823210222675423  1.0000
  O   O8        1.0  0.34834110039802374  0.9053803314390642  0.5823210222675423  1.0000
  O   O9        1.0  0.16395754589536932  0.3483411003980243  0.5823210222675423  1.0000
  O   O10       1.0  0.6639575458953694  0.40538033143906416  0.08232102226754238  1.0000
  O   O11       1.0  0.8483411003980234  0.6639575458953692  0.08232102226754238  1.0000
  O   O12       1.0  0.4053803314390638  0.8483411003980246  0.08232102226754238  1.0000
  O   O13       1.0  0.3794554167463292  0.5526646838464239  0.33229200597916386  1.0000
  O   O14       1.0  0.7355878934280835  0.3794554167463293  0.33229200597916386  1.0000
  O   O15       1.0  0.5526646838464241  0.7355878934280831  0.33229200597916386  1.0000
  O   O16       1.0  0.05266468384642359  0.8794554167463301  0.8322920059791635  1.0000
  O   O17       1.0  0.23558789342808317  0.05266468384642368  0.8322920059791635  1.0000
  O   O18       1.0  0.8794554167463295  0.23558789342808306  0.8322920059791635  1.0000
  O   O19       1.0  0.6205445832536706  0.44733531615357613  0.6677079940208365  1.0000
  O   O20       1.0  0.2644121065719167  0.6205445832536709  0.6677079940208365  1.0000
  O   O21       1.0  0.4473353161535754  0.2644121065719169  0.6677079940208365  1.0000
  O   O22       1.0  0.9473353161535768  0.12054458325367044  0.16770799402083633  1.0000
  O   O23       1.0  0.7644121065719167  0.9473353161535761  0.16770799402083633  1.0000
  O   O24       1.0  0.12054458325367072  0.764412106571917  0.1677079940208363  1.0000
  P   P1        1.0  0.25286834089980426  0.75  0.7500000000000001  1.0000
  P   P2        1.0  0.2471316591001956  0.2528683408998042  0.7500000000000001  1.0000
  P   P3        1.0  0.7499999999999997  0.2471316591001956  0.7500000000000001  1.0000
  P   P4        1.0  0.2499999999999997  0.7528683408998048  0.25  1.0000
  P   P5        1.0  0.7471316591001954  0.25000000000000006  0.25  1.0000
  P   P6        1.0  0.7528683408998046  0.7471316591001955  0.25  1.0000
  Ti  Ti1       1.0  0.37901100643842445  0.37901100643842467  0.8629669806847261  1.0000
  Ti  Ti2       1.0  0.8790110064384246  0.8790110064384247  0.3629669806847262  1.0000
  Ti  Ti3       1.0  0.6209889935615751  0.6209889935615756  0.13703301931527412  1.0000
  Ti  Ti4       1.0  0.12098899356157519  0.1209889935615753  0.6370330193152741  1.0000
