data_image0
_chemical_formula_structural       Li4Al4Cl16
_chemical_formula_sum              "Li4 Al4 Cl16"
_cell_length_a       6.6523805919823795
_cell_length_b       8.211713503932003
_cell_length_c       14.69593252961529
_cell_angle_alpha    90.0
_cell_angle_beta     91.74147948298834
_cell_angle_gamma    90.0

_space_group_name_H-M_alt    "P 1"
_space_group_IT_number       1

loop_
  _space_group_symop_operation_xyz
  'x, y, z'

loop_
  _atom_site_type_symbol
  _atom_site_label
  _atom_site_symmetry_multiplicity
  _atom_site_fract_x
  _atom_site_fract_y
  _atom_site_fract_z
  _atom_site_occupancy
  Li  Li1       1.0  0.18498293498966498  0.6003821827987034  0.8498164151924469  1.0000
  Li  Li2       1.0  0.815017065010336  0.10038218279870306  0.6501835848075558  1.0000
  Li  Li3       1.0  0.8150170650103338  0.399617817201297  0.15018358480755478  1.0000
  Li  Li4       1.0  0.18498293498966512  0.8996178172012963  0.3498164151924459  1.0000
  Al  Al1       1.0  0.7005944169563925  0.15804622791171327  0.3883223570277265  1.0000
  Al  Al2       1.0  0.2994055830436074  0.6580462279117132  0.11167764297227413  1.0000
  Al  Al3       1.0  0.29940558304360726  0.8419537720882866  0.6116776429722734  1.0000
  Al  Al4       1.0  0.700594416956392  0.3419537720882865  0.8883223570277273  1.0000
  Cl  Cl1       1.0  0.6878446326949461  0.2608214337540442  0.5235646918077828  1.0000
  Cl  Cl2       1.0  0.3121553673050549  0.760821433754044  0.9764353081922191  1.0000
  Cl  Cl3       1.0  0.3121553673050545  0.7391785662459555  0.47643530819221874  1.0000
  Cl  Cl4       1.0  0.6878446326949451  0.23917856624595576  0.023564691807781903  1.0000
  Cl  Cl5       1.0  0.8354015315310636  0.9190740019524286  0.39170199918081217  1.0000
  Cl  Cl6       1.0  0.16459846846893547  0.4190740019524288  0.10829800081918844  1.0000
  Cl  Cl7       1.0  0.1645984684689357  0.08092599804757107  0.6082980008191893  1.0000
  Cl  Cl8       1.0  0.8354015315310649  0.580925998047571  0.8917019991808133  1.0000
  Cl  Cl9       1.0  0.88280777950946  0.31691923265956123  0.3076066785755274  1.0000
  Cl  Cl10      1.0  0.11719222049053928  0.8169192326595615  0.19239332142447346  1.0000
  Cl  Cl11      1.0  0.1171922204905394  0.6830807673404388  0.6923933214244746  1.0000
  Cl  Cl12      1.0  0.88280777950946  0.18308076734043896  0.8076066785755273  1.0000
  Cl  Cl13      1.0  0.40157187053600596  0.1340140642933056  0.32925717817785344  1.0000
  Cl  Cl14      1.0  0.5984281294639937  0.6340140642933055  0.17074282182214706  1.0000
  Cl  Cl15      1.0  0.5984281294639946  0.8659859357066942  0.6707428218221472  1.0000
  Cl  Cl16      1.0  0.4015718705360056  0.36598593570669474  0.8292571781778546  1.0000
