data_image0
_chemical_formula_structural       Fe12V24O84Li12
_chemical_formula_sum              "Fe12 V24 O84 Li12"
_cell_length_a       13.463
_cell_length_b       8.1882
_cell_length_c       14.386000000000001
_cell_angle_alpha    90.0
_cell_angle_beta     96.547
_cell_angle_gamma    90.0

_space_group_name_H-M_alt    "P 1"
_space_group_IT_number       1

loop_
  _space_group_symop_operation_xyz
  'x, y, z'

loop_
  _atom_site_type_symbol
  _atom_site_label
  _atom_site_symmetry_multiplicity
  _atom_site_fract_x
  _atom_site_fract_y
  _atom_site_fract_z
  _atom_site_occupancy
  Fe  Fe1       1.0  0.4960464017458753  0.8033385070582243  0.37108177883771404  1.0000
  Fe  Fe2       1.0  0.49604640174587533  0.19666149294177568  0.871081778837714  1.0000
  Fe  Fe3       1.0  0.9960464017458757  0.3033385070582245  0.37108177883771404  1.0000
  Fe  Fe4       1.0  0.9960464017458758  0.6966614929417756  0.871081778837714  1.0000
  Fe  Fe5       1.0  0.849889288528282  0.8209105107392154  0.5407674029560189  1.0000
  Fe  Fe6       1.0  0.8498892885282822  0.17908948926078444  0.04076740295601928  1.0000
  Fe  Fe7       1.0  0.3498892885282826  0.320910510739216  0.5407674029560189  1.0000
  Fe  Fe8       1.0  0.3498892885282826  0.6790894892607846  0.04076740295601928  1.0000
  Fe  Fe9       1.0  0.7011960017648576  0.3071784157988478  0.7102397477793005  1.0000
  Fe  Fe10      1.0  0.7011960017648576  0.6928215842011528  0.2102397477793008  1.0000
  Fe  Fe11      1.0  0.20119600176485797  0.8071784157988473  0.7102397477793005  1.0000
  Fe  Fe12      1.0  0.2011960017648581  0.19282158420115242  0.2102397477793008  1.0000
  V   V1        1.0  0.4252784037990027  0.02806616785999916  0.17721255261183488  1.0000
  V   V2        1.0  0.4252784037990027  0.9719338321400014  0.6772125526118346  1.0000
  V   V3        1.0  0.9252784037990028  0.5280661678599987  0.17721255261183488  1.0000
  V   V4        1.0  0.9252784037990027  0.471933832140001  0.6772125526118346  1.0000
  V   V5        1.0  0.7028694288270959  0.9606956710040987  0.35464751793994687  1.0000
  V   V6        1.0  0.7028694288270961  0.03930432899590149  0.8546475179399469  1.0000
  V   V7        1.0  0.20286942882709524  0.4606956710040991  0.35464751793994687  1.0000
  V   V8        1.0  0.20286942882709524  0.5393043289959013  0.8546475179399469  1.0000
  V   V9        1.0  0.5724668820002573  0.4565905360323333  0.5147490811292915  1.0000
  V   V10       1.0  0.5724668820002573  0.5434094639676678  0.014749081129291505  1.0000
  V   V11       1.0  0.07246688200025721  0.9565905360323324  0.5147490811292915  1.0000
  V   V12       1.0  0.07246688200025721  0.04340946396766708  0.014749081129291505  1.0000
  V   V13       1.0  0.6306687707540399  0.9515396333463364  0.5668077945149661  1.0000
  V   V14       1.0  0.6306687707540393  0.048460366653664044  0.06680779451496624  1.0000
  V   V15       1.0  0.1306687707540396  0.45153963334633623  0.5668077945149661  1.0000
  V   V16       1.0  0.1306687707540398  0.5484603666536637  0.06680779451496624  1.0000
  V   V17       1.0  0.27360367558418064  0.9688087681519618  0.40352769869661786  1.0000
  V   V18       1.0  0.27360367558418064  0.03119123184803822  0.9035276986966173  1.0000
  V   V19       1.0  0.7736036755841796  0.46880876815196215  0.40352769869661786  1.0000
  V   V20       1.0  0.7736036755841795  0.5311912318480383  0.9035276986966173  1.0000
  V   V21       1.0  0.4081108737290941  0.46230787884558966  0.23949615193956303  1.0000
  V   V22       1.0  0.40811087372909427  0.5376921211544105  0.7394961519395643  1.0000
  V   V23       1.0  0.9081108737290932  0.9623078788455897  0.23949615193956303  1.0000
  V   V24       1.0  0.9081108737290934  0.03769212115441076  0.7394961519395643  1.0000
  O   O1        1.0  0.4769701841121208  0.3199494518328276  0.48087922579692244  1.0000
  O   O2        1.0  0.4769701841121209  0.6800505481671731  0.9808792257969227  1.0000
  O   O3        1.0  0.9769701841121202  0.819949451832827  0.48087922579692244  1.0000
  O   O4        1.0  0.9769701841121203  0.18005054816717259  0.9808792257969227  1.0000
  O   O5        1.0  0.3229530100394371  0.15122368474330228  0.14352705204269717  1.0000
  O   O6        1.0  0.3229530100394375  0.8487763152566978  0.6435270520426973  1.0000
  O   O7        1.0  0.8229530100394375  0.6512236847433025  0.14352705204269717  1.0000
  O   O8        1.0  0.8229530100394377  0.34877631525669783  0.6435270520426973  1.0000
  O   O9        1.0  0.23692800151042037  0.9895031408812751  0.2849751034854531  1.0000
  O   O10       1.0  0.2369280015104203  0.01049685911872512  0.784975103485452  1.0000
  O   O11       1.0  0.7369280015104204  0.489503140881275  0.2849751034854531  1.0000
  O   O12       1.0  0.7369280015104203  0.5104968591187251  0.784975103485452  1.0000
  O   O13       1.0  0.39594351890993185  0.48681445134893464  0.11792100197220627  1.0000
  O   O14       1.0  0.39594351890993196  0.5131855486510651  0.6179210019722057  1.0000
  O   O15       1.0  0.8959435189099317  0.9868144513489346  0.11792100197220627  1.0000
  O   O16       1.0  0.8959435189099317  0.013185548651065252  0.6179210019722057  1.0000
  O   O17       1.0  0.42102736176146266  0.6486180175141765  0.29129631445873033  1.0000
  O   O18       1.0  0.4210273617614628  0.3513819824858238  0.7912963144587297  1.0000
  O   O19       1.0  0.9210273617614622  0.14861801751417628  0.29129631445873033  1.0000
  O   O20       1.0  0.9210273617614619  0.8513819824858236  0.7912963144587297  1.0000
  O   O21       1.0  0.2933857954406886  0.15812179927068962  0.4483800135941456  1.0000
  O   O22       1.0  0.29338579544068866  0.8418782007293102  0.948380013594146  1.0000
  O   O23       1.0  0.7933857954406884  0.6581217992706899  0.4483800135941456  1.0000
  O   O24       1.0  0.7933857954406887  0.3418782007293105  0.948380013594146  1.0000
  O   O25       1.0  0.5294681031835229  0.8823362134914011  0.6249671871921273  1.0000
  O   O26       1.0  0.529468103183523  0.11766378650859954  0.12496718719212767  1.0000
  O   O27       1.0  0.02946810318352244  0.38233621349140107  0.6249671871921273  1.0000
  O   O28       1.0  0.02946810318352257  0.617663786508599  0.12496718719212767  1.0000
  O   O29       1.0  0.6198950461325173  0.7911981857145627  0.30420799489131756  1.0000
  O   O30       1.0  0.6198950461325173  0.20880181428543831  0.8042079948913178  1.0000
  O   O31       1.0  0.11989504613251709  0.29119818571456196  0.30420799489131756  1.0000
  O   O32       1.0  0.11989504613251718  0.7088018142854374  0.8042079948913178  1.0000
  O   O33       1.0  0.5885673501891466  0.9710489624468386  0.44232800469293654  1.0000
  O   O34       1.0  0.5885673501891466  0.02895103755316176  0.9423280046929361  1.0000
  O   O35       1.0  0.08856735018914665  0.47104896244683864  0.44232800469293654  1.0000
  O   O36       1.0  0.08856735018914663  0.5289510375531615  0.9423280046929361  1.0000
  O   O37       1.0  0.6738146201212571  0.13752063381009177  0.3038853519891592  1.0000
  O   O38       1.0  0.6738146201212575  0.8624793661899082  0.8038853519891592  1.0000
  O   O39       1.0  0.1738146201212574  0.6375206338100918  0.3038853519891592  1.0000
  O   O40       1.0  0.17381462012125745  0.36247936618990845  0.8038853519891592  1.0000
  O   O41       1.0  0.6644677092954214  0.13779997905628316  0.6104010902432575  1.0000
  O   O42       1.0  0.6644677092954216  0.8622000209437171  0.11040109024325777  1.0000
  O   O43       1.0  0.16446770929542157  0.637799979056283  0.6104010902432575  1.0000
  O   O44       1.0  0.16446770929542184  0.3622000209437172  0.11040109024325777  1.0000
  O   O45       1.0  0.6728969429491843  0.3745184609595559  0.45660907048240224  1.0000
  O   O46       1.0  0.6728969429491837  0.625481539040445  0.9566090704824021  1.0000
  O   O47       1.0  0.17289694294918379  0.8745184609595551  0.45660907048240224  1.0000
  O   O48       1.0  0.17289694294918376  0.12548153904044457  0.9566090704824021  1.0000
  O   O49       1.0  0.2954031074664283  0.36966502330828066  0.2805327190247378  1.0000
  O   O50       1.0  0.29540310746642845  0.6303349766917199  0.7805327190247383  1.0000
  O   O51       1.0  0.7954031074664284  0.86966502330828  0.2805327190247378  1.0000
  O   O52       1.0  0.7954031074664286  0.13033497669171962  0.7805327190247383  1.0000
  O   O53       1.0  0.5088627207672711  0.34743900764573526  0.27343819692155236  1.0000
  O   O54       1.0  0.5088627207672711  0.6525609923542651  0.7734381969215534  1.0000
  O   O55       1.0  0.008862720767271055  0.847439007645735  0.27343819692155236  1.0000
  O   O56       1.0  0.008862720767271216  0.15256099235426496  0.7734381969215534  1.0000
  O   O57       1.0  0.45220450289524217  0.008357159400851672  0.2970101901294018  1.0000
  O   O58       1.0  0.45220450289524217  0.9916428405991479  0.7970101901294008  1.0000
  O   O59       1.0  0.9522045028952418  0.5083571594008515  0.2970101901294018  1.0000
  O   O60       1.0  0.9522045028952416  0.49164284059914876  0.7970101901294008  1.0000
  O   O61       1.0  0.5439910426387643  0.6465682666611056  0.4719967127320337  1.0000
  O   O62       1.0  0.5439910426387643  0.35343173333889505  0.9719967127320337  1.0000
  O   O63       1.0  0.043991042638764376  0.14656826666110512  0.4719967127320337  1.0000
  O   O64       1.0  0.04399104263876436  0.8534317333388945  0.9719967127320337  1.0000
  O   O65       1.0  0.40855978522350694  0.8411117114389963  0.13012477806939854  1.0000
  O   O66       1.0  0.40855978522350705  0.1588882885610039  0.6301247780693986  1.0000
  O   O67       1.0  0.9085597852235062  0.3411117114389961  0.13012477806939854  1.0000
  O   O68       1.0  0.9085597852235062  0.6588882885610038  0.6301247780693986  1.0000
  O   O69       1.0  0.7813408021151754  0.9955362407285653  0.4594198005418383  1.0000
  O   O70       1.0  0.7813408021151755  0.00446375927143407  0.9594198005418382  1.0000
  O   O71       1.0  0.2813408021151748  0.49553624072856617  0.4594198005418383  1.0000
  O   O72       1.0  0.2813408021151749  0.5044637592714339  0.9594198005418382  1.0000
  O   O73       1.0  0.6119344849035829  0.46310564955392075  0.6337455040737152  1.0000
  O   O74       1.0  0.611934484903583  0.5368943504460794  0.13374550407371538  1.0000
  O   O75       1.0  0.11193448490358295  0.9631056495539208  0.6337455040737152  1.0000
  O   O76       1.0  0.11193448490358299  0.036894350446079416  0.13374550407371538  1.0000
  O   O77       1.0  0.3752414689482995  0.8437798530070371  0.43775917788431634  1.0000
  O   O78       1.0  0.3752414689482996  0.15622014699296344  0.9377591778843163  1.0000
  O   O79       1.0  0.8752414689482999  0.34377985300703673  0.43775917788431634  1.0000
  O   O80       1.0  0.8752414689482997  0.656220146992963  0.9377591778843163  1.0000
  O   O81       1.0  0.7199484281189343  0.8089144448496852  0.6017634925371783  1.0000
  O   O82       1.0  0.7199484281189343  0.1910855551503151  0.10176349253717897  1.0000
  O   O83       1.0  0.2199484281189345  0.3089144448496848  0.6017634925371783  1.0000
  O   O84       1.0  0.21994842811893453  0.691085555150315  0.10176349253717897  1.0000
  Li  Li1       1.0  0.6413629440988955  0.6750122601240496  0.7127414174085014  1.0000
  Li  Li2       1.0  0.6413629440988954  0.32498773987595087  0.21274141740850144  1.0000
  Li  Li3       1.0  0.14136294409889555  0.17501226012404913  0.7127414174085014  1.0000
  Li  Li4       1.0  0.14136294409889547  0.8249877398759505  0.21274141740850144  1.0000
  Li  Li5       1.0  0.3318249561733204  0.30776144239964776  0.0352596495404827  1.0000
  Li  Li6       1.0  0.33182495617332053  0.6922385576003525  0.5352596495404821  1.0000
  Li  Li7       1.0  0.8318249561733215  0.8077614423996475  0.0352596495404827  1.0000
  Li  Li8       1.0  0.8318249561733216  0.19223855760035227  0.5352596495404821  1.0000
  Li  Li9       1.0  0.5282783862728078  0.18760939532045545  0.37510122389024275  1.0000
  Li  Li10      1.0  0.5282783862728079  0.812390604679545  0.8751012238902431  1.0000
  Li  Li11      1.0  0.028278386272807723  0.6876093953204551  0.37510122389024275  1.0000
  Li  Li12      1.0  0.02827838627280776  0.312390604679545  0.8751012238902431  1.0000
