data_image0
_chemical_formula_structural       Fe12V24O84Li20
_chemical_formula_sum              "Fe12 V24 O84 Li20"
_cell_length_a       13.875530325317033
_cell_length_b       8.376017367885709
_cell_length_c       14.403454415265323
_cell_angle_alpha    90.0
_cell_angle_beta     95.87398977295321
_cell_angle_gamma    90.0

_space_group_name_H-M_alt    "P 1"
_space_group_IT_number       1

loop_
  _space_group_symop_operation_xyz
  'x, y, z'

loop_
  _atom_site_type_symbol
  _atom_site_label
  _atom_site_symmetry_multiplicity
  _atom_site_fract_x
  _atom_site_fract_y
  _atom_site_fract_z
  _atom_site_occupancy
  Fe  Fe1       1.0  0.49839246534751147  0.8041304977871794  0.3751510080784302  1.0000
  Fe  Fe2       1.0  0.4983924653475116  0.19870172088303406  0.8751510080784312  1.0000
  Fe  Fe3       1.0  0.9983924653475116  0.3041304977871804  0.3751510080784302  1.0000
  Fe  Fe4       1.0  0.9983924653475116  0.6987017208830348  0.8751510080784314  1.0000
  Fe  Fe5       1.0  0.8504545731700589  0.807841787378617  0.5338289789212647  1.0000
  Fe  Fe6       1.0  0.8504545731700587  0.19499043129159727  0.03382897892126483  1.0000
  Fe  Fe7       1.0  0.3504545731700585  0.307841787378617  0.5338289789212647  1.0000
  Fe  Fe8       1.0  0.35045457317005824  0.6949904312915979  0.03382897892126482  1.0000
  Fe  Fe9       1.0  0.7211127938969416  0.32125521649420996  0.708300819199359  1.0000
  Fe  Fe10      1.0  0.7211127938969416  0.6815770021760047  0.20830081919935886  1.0000
  Fe  Fe11      1.0  0.2211127938969417  0.8212552164942095  0.708300819199359  1.0000
  Fe  Fe12      1.0  0.22111279389694183  0.18157700217600423  0.2083008191993588  1.0000
  V   V1        1.0  0.4422185260762227  0.034757486277710976  0.1704265771392881  1.0000
  V   V2        1.0  0.4422185260762227  0.9680747323925037  0.6704265771392892  1.0000
  V   V3        1.0  0.9422185260762231  0.5347574862777104  0.1704265771392881  1.0000
  V   V4        1.0  0.9422185260762233  0.46807473239250286  0.6704265771392892  1.0000
  V   V5        1.0  0.6977162129842013  0.9515547724342823  0.3510506276393852  1.0000
  V   V6        1.0  0.6977162129842013  0.05127744623593196  0.8510506276393849  1.0000
  V   V7        1.0  0.19771621298420247  0.451554772434282  0.35105062763938544  1.0000
  V   V8        1.0  0.1977162129842022  0.5512774462359314  0.8510506276393845  1.0000
  V   V9        1.0  0.5730791824964233  0.45603762562180067  0.5089906019731729  1.0000
  V   V10       1.0  0.5730791824964233  0.5467945930484135  0.008990601973172627  1.0000
  V   V11       1.0  0.07307918249642364  0.9560376256218005  0.5089906019731728  1.0000
  V   V12       1.0  0.0730791824964234  0.046794593048413824  0.008990601973172627  1.0000
  V   V13       1.0  0.652110569310975  0.955827124532198  0.5584187008770675  1.0000
  V   V14       1.0  0.6521105693109749  0.0470050941380157  0.05841870087706655  1.0000
  V   V15       1.0  0.15211056931097602  0.4558271245321991  0.5584187008770675  1.0000
  V   V16       1.0  0.15211056931097566  0.547005094138015  0.05841870087706655  1.0000
  V   V17       1.0  0.27567724765618534  0.9583853208222638  0.3994687596554325  1.0000
  V   V18       1.0  0.27567724765618523  0.04444689784795241  0.8994687596554318  1.0000
  V   V19       1.0  0.7756772476561851  0.45838532082226113  0.3994687596554325  1.0000
  V   V20       1.0  0.7756772476561848  0.5444468978479517  0.899468759655432  1.0000
  V   V21       1.0  0.40717760413892  0.454297562763723  0.23878682436622878  1.0000
  V   V22       1.0  0.40717760413891996  0.5485346559064922  0.7387868243662292  1.0000
  V   V23       1.0  0.9071776041389209  0.9542975627637229  0.23878682436622878  1.0000
  V   V24       1.0  0.9071776041389211  0.04853465590649117  0.7387868243662292  1.0000
  O   O1        1.0  0.4762813301448137  0.3303303961111439  0.4747597448400532  1.0000
  O   O2        1.0  0.47628133014481355  0.6725018225590708  0.9747597448400528  1.0000
  O   O3        1.0  0.9762813301448118  0.8303303961111435  0.4747597448400532  1.0000
  O   O4        1.0  0.9762813301448116  0.17250182255907084  0.9747597448400528  1.0000
  O   O5        1.0  0.34426425657774146  0.15541232827026527  0.13915720488447786  1.0000
  O   O6        1.0  0.3442642565777412  0.8474198903999489  0.6391572048844777  1.0000
  O   O7        1.0  0.8442642565777415  0.6554123282702653  0.13915720488447786  1.0000
  O   O8        1.0  0.8442642565777415  0.3474198903999492  0.6391572048844777  1.0000
  O   O9        1.0  0.24737819752000448  0.961566782239504  0.2793332841715576  1.0000
  O   O10       1.0  0.24737819752000428  0.04126543643071326  0.7793332841715562  1.0000
  O   O11       1.0  0.747378197520004  0.46156678223950043  0.2793332841715576  1.0000
  O   O12       1.0  0.7473781975200037  0.5412654364307129  0.7793332841715562  1.0000
  O   O13       1.0  0.39430407028211595  0.49454211710675705  0.11996375085045108  1.0000
  O   O14       1.0  0.39430407028211606  0.5082901015634573  0.6199637508504506  1.0000
  O   O15       1.0  0.8943040702821164  0.9945421171067583  0.11996375085045108  1.0000
  O   O16       1.0  0.8943040702821161  0.008290101563456845  0.6199637508504506  1.0000
  O   O17       1.0  0.42883681708281457  0.6469349128752939  0.2859069272131117  1.0000
  O   O18       1.0  0.4288368170828145  0.35589730579491924  0.7859069272131106  1.0000
  O   O19       1.0  0.9288368170828147  0.14693491287529473  0.2859069272131117  1.0000
  O   O20       1.0  0.9288368170828143  0.855897305794921  0.7859069272131106  1.0000
  O   O21       1.0  0.3015773431887656  0.14494755840060622  0.4425910778008033  1.0000
  O   O22       1.0  0.30157734318876556  0.8578846602696075  0.9425910778008016  1.0000
  O   O23       1.0  0.8015773431887652  0.6449475584006069  0.4425910778008034  1.0000
  O   O24       1.0  0.8015773431887652  0.3578846602696082  0.9425910778008022  1.0000
  O   O25       1.0  0.5480968027920151  0.8935943969985005  0.6214447986500369  1.0000
  O   O26       1.0  0.548096802792015  0.10923782167171411  0.12144479865003585  1.0000
  O   O27       1.0  0.048096802792014566  0.39359439699849974  0.6214447986500369  1.0000
  O   O28       1.0  0.04809680279201447  0.6092378216717139  0.12144479865003585  1.0000
  O   O29       1.0  0.6180557693738848  0.7906348832131975  0.29816124139375244  1.0000
  O   O30       1.0  0.6180557693738848  0.21219733545701705  0.7981612413937529  1.0000
  O   O31       1.0  0.11805576937388484  0.2906348832131973  0.29816124139375244  1.0000
  O   O32       1.0  0.1180557693738848  0.7121973354570167  0.7981612413937529  1.0000
  O   O33       1.0  0.5862136704244038  0.9731763760647045  0.4393500726304676  1.0000
  O   O34       1.0  0.5862136704244034  0.029655842605508992  0.9393500726304663  1.0000
  O   O35       1.0  0.08621367042440362  0.47317637606470514  0.4393500726304676  1.0000
  O   O36       1.0  0.08621367042440353  0.5296558426055095  0.9393500726304665  1.0000
  O   O37       1.0  0.682289990605014  0.12916600053351499  0.30052061663947083  1.0000
  O   O38       1.0  0.6822899906050142  0.8736662181367006  0.8005206166394713  1.0000
  O   O39       1.0  0.18228999060501305  0.6291660005335136  0.3005206166394707  1.0000
  O   O40       1.0  0.18228999060501302  0.37366621813669937  0.8005206166394708  1.0000
  O   O41       1.0  0.6810409281878541  0.13532731519412716  0.6043218523161062  1.0000
  O   O42       1.0  0.6810409281878541  0.8675049034760868  0.10432185231610647  1.0000
  O   O43       1.0  0.1810409281878532  0.6353273151941273  0.6043218523161065  1.0000
  O   O44       1.0  0.1810409281878534  0.36750490347608766  0.10432185231610644  1.0000
  O   O45       1.0  0.67228688791393  0.37844493755897346  0.4510050828614324  1.0000
  O   O46       1.0  0.6722868879139292  0.6243872811112411  0.9510050828614308  1.0000
  O   O47       1.0  0.17228688791392946  0.8784449375589731  0.4510050828614324  1.0000
  O   O48       1.0  0.17228688791392927  0.12438728111124092  0.9510050828614308  1.0000
  O   O49       1.0  0.30016182952269954  0.37329117109773213  0.28463224343517285  1.0000
  O   O50       1.0  0.30016182952269926  0.6295410475724815  0.7846322434351727  1.0000
  O   O51       1.0  0.8001618295227012  0.8732911710977325  0.28463224343517285  1.0000
  O   O52       1.0  0.8001618295227011  0.1295410475724824  0.7846322434351727  1.0000
  O   O53       1.0  0.5051641316620274  0.33769466157425765  0.265478286819852  1.0000
  O   O54       1.0  0.5051641316620273  0.6651375570959555  0.7654782868198508  1.0000
  O   O55       1.0  0.005164131662027119  0.837694661574259  0.265478286819852  1.0000
  O   O56       1.0  0.005164131662026561  0.16513755709595632  0.7654782868198508  1.0000
  O   O57       1.0  0.45912725595802484  0.005213690897737326  0.2896390527309215  1.0000
  O   O58       1.0  0.45912725595802484  0.997618527772477  0.7896390527309219  1.0000
  O   O59       1.0  0.9591272559580245  0.5052136908977374  0.2896390527309215  1.0000
  O   O60       1.0  0.9591272559580247  0.497618527772477  0.7896390527309219  1.0000
  O   O61       1.0  0.5460750736315412  0.6458418729995272  0.4707102154551592  1.0000
  O   O62       1.0  0.5460750736315412  0.35699034567068627  0.9707102154551597  1.0000
  O   O63       1.0  0.046075073631540994  0.14584187299952744  0.47071021545515934  1.0000
  O   O64       1.0  0.046075073631541015  0.8569903456706865  0.9707102154551597  1.0000
  O   O65       1.0  0.4184436374797393  0.8432751658220906  0.1260762828252762  1.0000
  O   O66       1.0  0.41844363747973906  0.1595570528481237  0.6260762828252766  1.0000
  O   O67       1.0  0.9184436374797401  0.34327516582209006  0.1260762828252762  1.0000
  O   O68       1.0  0.9184436374797399  0.6595570528481236  0.6260762828252766  1.0000
  O   O69       1.0  0.7684612660026374  0.9763896694546514  0.4653054971952872  1.0000
  O   O70       1.0  0.7684612660026375  0.026442549215563403  0.9653054971952877  1.0000
  O   O71       1.0  0.2684612660026383  0.4763896694546511  0.4653054971952872  1.0000
  O   O72       1.0  0.2684612660026384  0.5264425492155629  0.9653054971952877  1.0000
  O   O73       1.0  0.605093157156683  0.4522136930217917  0.6292993331090504  1.0000
  O   O74       1.0  0.6050931571566835  0.550618525648424  0.12929933310905053  1.0000
  O   O75       1.0  0.10509315715668278  0.9522136930217907  0.6292993331090504  1.0000
  O   O76       1.0  0.1050931571566828  0.05061852564842328  0.12929933310905053  1.0000
  O   O77       1.0  0.37232157065841626  0.8302913169727784  0.4320015319346433  1.0000
  O   O78       1.0  0.37232157065841615  0.17254090169743583  0.9320015319346439  1.0000
  O   O79       1.0  0.8723215706584168  0.3302913169727785  0.4320015319346433  1.0000
  O   O80       1.0  0.8723215706584168  0.6725409016974359  0.9320015319346439  1.0000
  O   O81       1.0  0.729233322707939  0.7996362089245486  0.6071548667620718  1.0000
  O   O82       1.0  0.729233322707939  0.203196009745666  0.10715486676207284  1.0000
  O   O83       1.0  0.22923332270793853  0.29963620892454834  0.6071548667620718  1.0000
  O   O84       1.0  0.22923332270793875  0.7031960097456657  0.10715486676207284  1.0000
  Li  Li1       1.0  0.6142011167697333  0.6820311939632303  0.6846250439368458  1.0000
  Li  Li2       1.0  0.614201116769735  0.32080102470698374  0.18462504393684717  1.0000
  Li  Li3       1.0  0.11420111676973348  0.1820311939632307  0.6846250439368458  1.0000
  Li  Li4       1.0  0.1142011167697335  0.8208010247069839  0.18462504393684717  1.0000
  Li  Li5       1.0  0.32771864549807883  0.3207681573750356  0.03500638000430774  1.0000
  Li  Li6       1.0  0.32771864549807894  0.68206406129518  0.5350063800043079  1.0000
  Li  Li7       1.0  0.8277186454980784  0.8207681573750342  0.03500638000430775  1.0000
  Li  Li8       1.0  0.8277186454980789  0.18206406129517883  0.5350063800043079  1.0000
  Li  Li9       1.0  0.528414481160237  0.18274212267394638  0.37162750646378034  1.0000
  Li  Li10      1.0  0.528414481160237  0.8200900959962673  0.8716275064637798  1.0000
  Li  Li11      1.0  0.028414481160236982  0.682742122673947  0.37162750646378034  1.0000
  Li  Li12      1.0  0.02841448116023694  0.3200900959962676  0.8716275064637798  1.0000
  Li  Li13      1.0  0.2955449669591151  0.7509264097916147  0.23620895899995742  1.0000
  Li  Li14      1.0  0.023281658096703163  0.2073993028834796  0.18945882154571786  1.0000
  Li  Li15      1.0  0.7955449669591166  0.25092640979161523  0.23620895899995742  1.0000
  Li  Li16      1.0  0.5232816580967026  0.29543291578673453  0.689458821545717  1.0000
  Li  Li17      1.0  0.023281658096703146  0.7954329157867347  0.6894588215457172  1.0000
  Li  Li18      1.0  0.7955449669591169  0.7519058088785997  0.7362089589999574  1.0000
  Li  Li19      1.0  0.5232816580967026  0.7073993028834797  0.1894588215457178  1.0000
  Li  Li20      1.0  0.2955449669591151  0.2519058088785993  0.7362089589999569  1.0000
