data_image0
_chemical_formula_structural       Li4Zr8P12O48
_chemical_formula_sum              "Li4 Zr8 P12 O48"
_cell_length_a       8.81277
_cell_length_b       8.945199999999998
_cell_length_c       12.375000000000002
_cell_angle_alpha    90.0
_cell_angle_beta     90.80100000000002
_cell_angle_gamma    90.0

_space_group_name_H-M_alt    "P 1"
_space_group_IT_number       1

loop_
  _space_group_symop_operation_xyz
  'x, y, z'

loop_
  _atom_site_type_symbol
  _atom_site_label
  _atom_site_symmetry_multiplicity
  _atom_site_fract_x
  _atom_site_fract_y
  _atom_site_fract_z
  _atom_site_occupancy
  Li  Li1       1.0  0.20534584948132464  0.722693830201521  0.1723477486308783  1.0000
  Li  Li2       1.0  0.7053458494813246  0.777306169798479  0.6723477486308783  1.0000
  Li  Li3       1.0  0.7946541505186752  0.277306169798479  0.8276522513691217  1.0000
  Li  Li4       1.0  0.29465415051867533  0.222693830201521  0.3276522513691217  1.0000
  Zr  Zr1       1.0  0.7462533169518755  0.955704647072651  0.8895679159478612  1.0000
  Zr  Zr2       1.0  0.24625331695187552  0.544295352927349  0.3895679159478613  1.0000
  Zr  Zr3       1.0  0.25374668304812437  0.04429535292734903  0.11043208405213878  1.0000
  Zr  Zr4       1.0  0.7537466830481245  0.45570464707265096  0.6104320840521387  1.0000
  Zr  Zr5       1.0  0.7514180225419753  0.5268585323555696  0.1208307515990034  1.0000
  Zr  Zr6       1.0  0.25141802254197526  0.9731414676444303  0.6208307515990035  1.0000
  Zr  Zr7       1.0  0.24858197745802474  0.47314146764443044  0.8791692484009965  1.0000
  Zr  Zr8       1.0  0.7485819774580247  0.02685853235556959  0.37916924840099653  1.0000
  P   P1        1.0  0.8869609351483752  0.6020273360533747  0.8542586946468594  1.0000
  P   P2        1.0  0.3869609351483751  0.8979726639466253  0.3542586946468595  1.0000
  P   P3        1.0  0.1130390648516248  0.3979726639466253  0.1457413053531405  1.0000
  P   P4        1.0  0.613039064851625  0.10202733605337469  0.6457413053531406  1.0000
  P   P5        1.0  0.9016243382919937  0.8792161967835697  0.14763242983263986  1.0000
  P   P6        1.0  0.4016243382919937  0.6207838032164305  0.6476324298326399  1.0000
  P   P7        1.0  0.09837566170800631  0.1207838032164303  0.8523675701673601  1.0000
  P   P8        1.0  0.5983756617080063  0.3792161967835697  0.3523675701673601  1.0000
  P   P9        1.0  0.46416482919480495  0.7503252240138709  0.010474866718635015  1.0000
  P   P10       1.0  0.9641648291948047  0.7496747759861291  0.5104748667186351  1.0000
  P   P11       1.0  0.5358351708051952  0.24967477598612914  0.9895251332813649  1.0000
  P   P12       1.0  0.03583517080519517  0.25032522401387086  0.489525133281365  1.0000
  O   O1        1.0  0.8491294235660933  0.9197604162162236  0.031890805898437374  1.0000
  O   O2        1.0  0.3491294235660931  0.5802395837837766  0.5318908058984373  1.0000
  O   O3        1.0  0.15087057643390667  0.08023958378377648  0.9681091941015627  1.0000
  O   O4        1.0  0.6508705764339067  0.41976041621622345  0.4681091941015626  1.0000
  O   O5        1.0  0.8209864074614942  0.7556618858793955  0.81992698350659  1.0000
  O   O6        1.0  0.3209864074614942  0.7443381141206045  0.31992698350659016  1.0000
  O   O7        1.0  0.1790135925385056  0.2443381141206045  0.1800730164934098  1.0000
  O   O8        1.0  0.6790135925385056  0.25566188587939553  0.6800730164934099  1.0000
  O   O9        1.0  0.5516974473301138  0.8631828810299976  0.9415937010365915  1.0000
  O   O10       1.0  0.05169744733011373  0.6368171189700024  0.44159370103659135  1.0000
  O   O11       1.0  0.44830255266988633  0.13681711897000237  0.058406298963408584  1.0000
  O   O12       1.0  0.9483025526698864  0.36318288102999763  0.5584062989634087  1.0000
  O   O13       1.0  0.9255626053423732  0.09414731927021908  0.842373513954614  1.0000
  O   O14       1.0  0.42556260534237333  0.4058526807297809  0.342373513954614  1.0000
  O   O15       1.0  0.07443739465762676  0.905852680729781  0.15762648604538598  1.0000
  O   O16       1.0  0.5744373946576268  0.594147319270219  0.657626486045386  1.0000
  O   O17       1.0  0.6682510062556951  0.98298039216906  0.7280570858887606  1.0000
  O   O18       1.0  0.1682510062556951  0.5170196078309399  0.22805708588876056  1.0000
  O   O19       1.0  0.3317489937443048  0.01701960783094002  0.2719429141112394  1.0000
  O   O20       1.0  0.8317489937443048  0.4829803921690601  0.7719429141112394  1.0000
  O   O21       1.0  0.6559021776639747  0.1650315976516936  0.9227460604026954  1.0000
  O   O22       1.0  0.15590217766397474  0.33496840234830644  0.42274606040269536  1.0000
  O   O23       1.0  0.34409782233602537  0.8349684023483064  0.07725393959730462  1.0000
  O   O24       1.0  0.8440978223360254  0.6650315976516936  0.5772539395973046  1.0000
  O   O25       1.0  0.8229898280434405  0.5586357613658447  0.9634915550134325  1.0000
  O   O26       1.0  0.32298982804344045  0.9413642386341553  0.4634915550134324  1.0000
  O   O27       1.0  0.17701017195655955  0.44136423863415536  0.0365084449865675  1.0000
  O   O28       1.0  0.6770101719565595  0.05863576136584477  0.5365084449865676  1.0000
  O   O29       1.0  0.8744953723460023  0.7143547632499739  0.16834856924716635  1.0000
  O   O30       1.0  0.3744953723460022  0.7856452367500262  0.6683485692471663  1.0000
  O   O31       1.0  0.12550462765399775  0.2856452367500261  0.8316514307528337  1.0000
  O   O32       1.0  0.6255046276539977  0.21435476324997385  0.33165143075283376  1.0000
  O   O33       1.0  0.570638893177342  0.6710246272775726  0.08879085905303072  1.0000
  O   O34       1.0  0.0706388931773419  0.8289753727224274  0.5887908590530307  1.0000
  O   O35       1.0  0.4293611068226581  0.32897537272242744  0.9112091409469693  1.0000
  O   O36       1.0  0.929361106822658  0.1710246272775726  0.4112091409469693  1.0000
  O   O37       1.0  0.9406557417288386  0.392507396722739  0.1438179520542861  1.0000
  O   O38       1.0  0.44065574172883853  0.107492603277261  0.6438179520542863  1.0000
  O   O39       1.0  0.05934425827116147  0.607492603277261  0.856182047945714  1.0000
  O   O40       1.0  0.5593442582711614  0.892507396722739  0.3561820479457139  1.0000
  O   O41       1.0  0.6816866196551745  0.47862866417416905  0.2739184571396916  1.0000
  O   O42       1.0  0.18168661965517463  0.021371335825830836  0.7739184571396914  1.0000
  O   O43       1.0  0.3183133803448254  0.521371335825831  0.7260815428603085  1.0000
  O   O44       1.0  0.8183133803448255  0.9786286641741692  0.22608154286030846  1.0000
  O   O45       1.0  0.6184008337316358  0.3569086083451823  0.06422338819528756  1.0000
  O   O46       1.0  0.11840083373163574  0.14309139165481774  0.5642233881952876  1.0000
  O   O47       1.0  0.38159916626836426  0.6430913916548177  0.9357766118047124  1.0000
  O   O48       1.0  0.8815991662683642  0.8569086083451822  0.43577661180471244  1.0000
