data_image0
_chemical_formula_structural       Li4Zr8P12O48
_chemical_formula_sum              "Li4 Zr8 P12 O48"
_cell_length_a       8.81277
_cell_length_b       8.945199999999998
_cell_length_c       12.375000000000002
_cell_angle_alpha    90.0
_cell_angle_beta     90.80100000000002
_cell_angle_gamma    90.0

_space_group_name_H-M_alt    "P 1"
_space_group_IT_number       1

loop_
  _space_group_symop_operation_xyz
  'x, y, z'

loop_
  _atom_site_type_symbol
  _atom_site_label
  _atom_site_symmetry_multiplicity
  _atom_site_fract_x
  _atom_site_fract_y
  _atom_site_fract_z
  _atom_site_occupancy
  Li  Li1       1.0  0.19984806279262288  0.723885712396879  0.17676253145433563  1.0000
  Li  Li2       1.0  0.6998480627926229  0.7761142876031207  0.676762531454336  1.0000
  Li  Li3       1.0  0.800151937207377  0.276114287603121  0.8232374685456643  1.0000
  Li  Li4       1.0  0.300151937207377  0.223885712396879  0.32323746854566443  1.0000
  Zr  Zr1       1.0  0.7456672593311081  0.9534913513259123  0.8889341206509215  1.0000
  Zr  Zr2       1.0  0.2456672593311081  0.5465086486740871  0.3889341206509218  1.0000
  Zr  Zr3       1.0  0.2543327406688918  0.046508648674087334  0.11106587934907831  1.0000
  Zr  Zr4       1.0  0.7543327406688919  0.45349135132591284  0.6110658793490782  1.0000
  Zr  Zr5       1.0  0.7512274426527047  0.530942445089986  0.12286415410049009  1.0000
  Zr  Zr6       1.0  0.25122744265270464  0.9690575549100151  0.6228641541004901  1.0000
  Zr  Zr7       1.0  0.2487725573472953  0.46905755491001394  0.8771358458995094  1.0000
  Zr  Zr8       1.0  0.7487725573472953  0.03094244508998558  0.3771358458995098  1.0000
  P   P1        1.0  0.8905915846366074  0.6036026543329052  0.8540006170655198  1.0000
  P   P2        1.0  0.3905915846366068  0.8963973456670947  0.3540006170655202  1.0000
  P   P3        1.0  0.10940841536339305  0.39639734566709495  0.14599938293448  1.0000
  P   P4        1.0  0.6094084153633927  0.1036026543329051  0.6459993829344799  1.0000
  P   P5        1.0  0.9021666961180167  0.8810858681891629  0.14889819758119782  1.0000
  P   P6        1.0  0.4021666961180169  0.618914131810837  0.648898197581198  1.0000
  P   P7        1.0  0.09783330388198311  0.1189141318108371  0.851101802418802  1.0000
  P   P8        1.0  0.5978333038819833  0.3810858681891629  0.35110180241880207  1.0000
  P   P9        1.0  0.46158752596168495  0.7503280908392281  0.010198568483911754  1.0000
  P   P10       1.0  0.9615875259616844  0.749671909160772  0.5101985684839119  1.0000
  P   P11       1.0  0.5384124740383152  0.24967190916077198  0.9898014315160879  1.0000
  P   P12       1.0  0.03841247403831529  0.250328090839228  0.4898014315160881  1.0000
  O   O1        1.0  0.858055904386787  0.9111888982263235  0.02955268951279695  1.0000
  O   O2        1.0  0.3580559043867865  0.5888111017736768  0.5295526895127968  1.0000
  O   O3        1.0  0.14194409561321344  0.08881110177367679  0.9704473104872031  1.0000
  O   O4        1.0  0.641944095613213  0.411188898226323  0.4704473104872031  1.0000
  O   O5        1.0  0.8204997691930669  0.7543008005386442  0.8145951288631071  1.0000
  O   O6        1.0  0.3204997691930669  0.7456991994613559  0.3145951288631069  1.0000
  O   O7        1.0  0.17950023080693303  0.24569919946135585  0.185404871136893  1.0000
  O   O8        1.0  0.6795002308069329  0.2543008005386441  0.6854048711368927  1.0000
  O   O9        1.0  0.5470862837614346  0.8663438618216118  0.9418366953242262  1.0000
  O   O10       1.0  0.04708628376143451  0.6336561381783883  0.4418366953242265  1.0000
  O   O11       1.0  0.4529137162385654  0.13365613817838812  0.058163304675773686  1.0000
  O   O12       1.0  0.9529137162385648  0.3663438618216118  0.5581633046757736  1.0000
  O   O13       1.0  0.9254873535731486  0.09095872806132223  0.8355622526113842  1.0000
  O   O14       1.0  0.4254873535731486  0.4090412719386779  0.3355622526113845  1.0000
  O   O15       1.0  0.07451264642685163  0.909041271938678  0.16443774738861558  1.0000
  O   O16       1.0  0.5745126464268514  0.5909587280613223  0.6644377473886157  1.0000
  O   O17       1.0  0.6612602816504893  0.979178251693446  0.7259819385264012  1.0000
  O   O18       1.0  0.1612602816504894  0.5208217483065531  0.22598193852640083  1.0000
  O   O19       1.0  0.33873971834951055  0.020821748306553686  0.2740180614735991  1.0000
  O   O20       1.0  0.8387397183495106  0.47917825169344685  0.774018061473599  1.0000
  O   O21       1.0  0.6658813424924666  0.1700577167111352  0.9262272584488896  1.0000
  O   O22       1.0  0.16588134249246667  0.3299422832888648  0.4262272584488905  1.0000
  O   O23       1.0  0.3341186575075335  0.8299422832888645  0.07377274155110995  1.0000
  O   O24       1.0  0.8341186575075334  0.6700577167111355  0.5737727415511096  1.0000
  O   O25       1.0  0.8281206282479456  0.5651598651149237  0.965327974511964  1.0000
  O   O26       1.0  0.3281206282479456  0.934840134885076  0.4653279745119638  1.0000
  O   O27       1.0  0.17187937175205442  0.43484013488507617  0.03467202548803613  1.0000
  O   O28       1.0  0.6718793717520544  0.06515986511492397  0.5346720254880363  1.0000
  O   O29       1.0  0.8765693150428514  0.7160849907064056  0.17681764254255414  1.0000
  O   O30       1.0  0.37656931504285135  0.7839150092935945  0.676817642542554  1.0000
  O   O31       1.0  0.12343068495714872  0.2839150092935943  0.823182357457446  1.0000
  O   O32       1.0  0.6234306849571486  0.21608499070640563  0.32318235745744595  1.0000
  O   O33       1.0  0.5692636816585829  0.6764888466797623  0.0921594655735892  1.0000
  O   O34       1.0  0.06926368165858304  0.8235111533202376  0.5921594655735891  1.0000
  O   O35       1.0  0.4307363183414169  0.32351115332023733  0.9078405344264108  1.0000
  O   O36       1.0  0.9307363183414177  0.1764888466797627  0.40784053442641083  1.0000
  O   O37       1.0  0.9363357692570631  0.3847291311542275  0.14392721666952024  1.0000
  O   O38       1.0  0.4363357692570631  0.11527086884577248  0.6439272166695205  1.0000
  O   O39       1.0  0.06366423074293695  0.6152708688457726  0.8560727833304798  1.0000
  O   O40       1.0  0.5636642307429367  0.8847291311542274  0.35607278333047965  1.0000
  O   O41       1.0  0.6881120391146877  0.48744159666838055  0.2800176842515385  1.0000
  O   O42       1.0  0.18811203911468752  0.012558403331619328  0.7800176842515387  1.0000
  O   O43       1.0  0.3118879608853125  0.5125584033316194  0.7199823157484613  1.0000
  O   O44       1.0  0.8118879608853123  0.9874415966683806  0.21998231574846155  1.0000
  O   O45       1.0  0.6118647096208756  0.3625209676026304  0.06674010763272001  1.0000
  O   O46       1.0  0.11186470962087541  0.13747903239736955  0.56674010763272  1.0000
  O   O47       1.0  0.38813529037912453  0.6374790323973692  0.9332598923672798  1.0000
  O   O48       1.0  0.8881352903791244  0.8625209676026306  0.43325989236727996  1.0000
