# generated using pymatgen
data_Nb2(PO4)3
_symmetry_space_group_name_H-M   'P 1'
_cell_length_a   8.94386482
_cell_length_b   8.94386482
_cell_length_c   8.94386569
_cell_angle_alpha   59.05887220
_cell_angle_beta   59.05887220
_cell_angle_gamma   59.05886715
_symmetry_Int_Tables_number   1
_chemical_formula_structural   Nb2(PO4)3
_chemical_formula_sum   'Nb4 P6 O24'
_cell_volume   495.03877031
_cell_formula_units_Z   2
loop_
 _symmetry_equiv_pos_site_id
 _symmetry_equiv_pos_as_xyz
  1  'x, y, z'
loop_
 _atom_site_type_symbol
 _atom_site_label
 _atom_site_symmetry_multiplicity
 _atom_site_fract_x
 _atom_site_fract_y
 _atom_site_fract_z
 _atom_site_occupancy
  Nb  Nb0  1  0.14099596  0.14099596  0.14099596  1
  Nb  Nb1  1  0.35900404  0.35900404  0.35900404  1
  Nb  Nb2  1  0.85900404  0.85900404  0.85900404  1
  Nb  Nb3  1  0.64099596  0.64099596  0.64099596  1
  P  P4  1  0.25000000  0.53417391  0.96582609  1
  P  P5  1  0.96582609  0.25000000  0.53417391  1
  P  P6  1  0.53417391  0.96582609  0.25000000  1
  P  P7  1  0.75000000  0.46582609  0.03417391  1
  P  P8  1  0.03417391  0.75000000  0.46582609  1
  P  P9  1  0.46582609  0.03417391  0.75000000  1
  O  O10  1  0.91835931  0.29168728  0.06110455  1
  O  O11  1  0.06110455  0.91835931  0.29168728  1
  O  O12  1  0.29168728  0.06110455  0.91835931  1
  O  O13  1  0.58164069  0.43889545  0.20831272  1
  O  O14  1  0.20831272  0.58164069  0.43889545  1
  O  O15  1  0.43889545  0.20831272  0.58164069  1
  O  O16  1  0.08164069  0.70831272  0.93889545  1
  O  O17  1  0.93889545  0.08164069  0.70831272  1
  O  O18  1  0.70831272  0.93889545  0.08164069  1
  O  O19  1  0.41835931  0.56110455  0.79168728  1
  O  O20  1  0.49538853  0.86720513  0.71896009  1
  O  O21  1  0.86720513  0.71896009  0.49538853  1
  O  O22  1  0.71896009  0.49538853  0.86720513  1
  O  O23  1  0.63279487  0.00461147  0.78103991  1
  O  O24  1  0.00461147  0.78103991  0.63279487  1
  O  O25  1  0.78103991  0.63279487  0.00461147  1
  O  O26  1  0.50461147  0.13279487  0.28103991  1
  O  O27  1  0.13279487  0.28103991  0.50461147  1
  O  O28  1  0.28103991  0.50461147  0.13279487  1
  O  O29  1  0.36720513  0.99538853  0.21896009  1
  O  O30  1  0.99538853  0.21896009  0.36720513  1
  O  O31  1  0.21896009  0.36720513  0.99538853  1
  O  O32  1  0.56110455  0.79168728  0.41835931  1
  O  O33  1  0.79168728  0.41835931  0.56110455  1
