# generated using pymatgen
data_Li4Mn2NbNi3(PO4)6
_symmetry_space_group_name_H-M   'P 1'
_cell_length_a   8.54865718
_cell_length_b   8.65232866
_cell_length_c   8.64067687
_cell_angle_alpha   62.05682697
_cell_angle_beta   62.33511105
_cell_angle_gamma   62.44966818
_symmetry_Int_Tables_number   1
_chemical_formula_structural   Li4Mn2NbNi3(PO4)6
_chemical_formula_sum   'Li4 Mn2 Nb1 Ni3 P6 O24'
_cell_volume   474.91645855
_cell_formula_units_Z   1
loop_
 _symmetry_equiv_pos_site_id
 _symmetry_equiv_pos_as_xyz
  1  'x, y, z'
loop_
 _atom_site_type_symbol
 _atom_site_label
 _atom_site_symmetry_multiplicity
 _atom_site_fract_x
 _atom_site_fract_y
 _atom_site_fract_z
 _atom_site_occupancy
  Li  Li0  1  0.74363200  0.14965500  0.35448700  1
  Li  Li1  1  0.30518600  0.84026600  0.64368500  1
  Li  Li2  1  0.64074800  0.30515500  0.84297300  1
  Li  Li3  1  0.84188800  0.64011700  0.30904200  1
  Mn  Mn4  1  0.01472900  0.00007800  0.99696500  1
  Mn  Mn5  1  0.48667800  0.50386200  0.49935200  1
  Nb  Nb6  1  0.85331300  0.84782600  0.85138900  1
  Ni  Ni7  1  0.14252300  0.14883100  0.14702500  1
  Ni  Ni8  1  0.35640000  0.35382400  0.35096300  1
  Ni  Ni9  1  0.64706800  0.64983600  0.65277400  1
  P  P10  1  0.05308700  0.74477300  0.44148700  1
  P  P11  1  0.44080100  0.05223600  0.74906800  1
  P  P12  1  0.74798400  0.44107400  0.05067800  1
  P  P13  1  0.25192400  0.53966200  0.95654100  1
  P  P14  1  0.54877400  0.95741200  0.25385100  1
  P  P15  1  0.94659200  0.24965000  0.53786800  1
  O  O16  1  0.11545100  0.29490200  0.49407400  1
  O  O17  1  0.30893400  0.51560800  0.10898000  1
  O  O18  1  0.05776900  0.91057500  0.26100400  1
  O  O19  1  0.54924600  0.10491400  0.30356000  1
  O  O20  1  0.00907100  0.80843500  0.60588600  1
  O  O21  1  0.24174200  0.59283800  0.43233100  1
  O  O22  1  0.25311800  0.08090000  0.90115500  1
  O  O23  1  0.45735900  0.23134300  0.58367500  1
  O  O24  1  0.17671600  0.39615600  0.99139400  1
  O  O25  1  0.59766700  0.43111700  0.24312400  1
  O  O26  1  0.10397100  0.74512700  0.91542900  1
  O  O27  1  0.39020400  0.01092100  0.18905600  1
  O  O28  1  0.60452000  0.00086400  0.82006200  1
  O  O29  1  0.89875800  0.24941200  0.07681100  1
  O  O30  1  0.41156000  0.55758300  0.76226600  1
  O  O31  1  0.81633100  0.60099900  0.00686000  1
  O  O32  1  0.55551600  0.76600200  0.41584200  1
  O  O33  1  0.75003700  0.90847100  0.10324900  1
  O  O34  1  0.75697900  0.41272400  0.56246500  1
  O  O35  1  0.95388900  0.18329000  0.39868700  1
  O  O36  1  0.47087100  0.89452500  0.69288800  1
  O  O37  1  0.91687300  0.09972500  0.74217500  1
  O  O38  1  0.68712100  0.47450500  0.89488200  1
  O  O39  1  0.89497200  0.68180800  0.47899600  1
