# generated using pymatgen
data_Li11V4F24
_symmetry_space_group_name_H-M   'P 1'
_cell_length_a   11.38667780
_cell_length_b   11.38667780
_cell_length_c   11.38667780
_cell_angle_alpha   128.22036261
_cell_angle_beta   128.22036261
_cell_angle_gamma   76.26832046
_symmetry_Int_Tables_number   1
_chemical_formula_structural   Li11V4F24
_chemical_formula_sum   'Li22 V8 F48'
_cell_volume   885.60016771
_cell_formula_units_Z   2
loop_
 _symmetry_equiv_pos_site_id
 _symmetry_equiv_pos_as_xyz
  1  'x, y, z'
loop_
 _atom_site_type_symbol
 _atom_site_label
 _atom_site_symmetry_multiplicity
 _atom_site_fract_x
 _atom_site_fract_y
 _atom_site_fract_z
 _atom_site_occupancy
  Li  Li0  1  0.62500000  0.87500000  0.75000000  1
  Li  Li1  1  0.09889100  0.84889100  0.25000000  1
  Li  Li2  1  0.37999000  0.63734400  0.27279800  1
  Li  Li3  1  0.29459500  0.30933700  0.99280200  1
  Li  Li4  1  0.65110900  0.40110900  0.25000000  1
  Li  Li5  1  0.13545400  0.89280800  0.77279800  1
  Li  Li6  1  0.80179300  0.79459500  0.48525800  1
  Li  Li7  1  0.19066300  0.68346600  0.98525800  1
  Li  Li8  1  0.81653400  0.30179300  0.50719800  1
  Li  Li9  1  0.39280800  0.12001000  0.75735400  1
  Li  Li10  1  0.86265600  0.63545400  0.74264600  1
  Li  Li11  1  0.13734400  0.36454600  0.25735400  1
  Li  Li12  1  0.60719200  0.87999000  0.24264600  1
  Li  Li13  1  0.18346600  0.69820700  0.49280200  1
  Li  Li14  1  0.80933700  0.31653400  0.01474200  1
  Li  Li15  1  0.19820700  0.20540500  0.51474200  1
  Li  Li16  1  0.86454600  0.10719200  0.22720200  1
  Li  Li17  1  0.34889100  0.59889100  0.75000000  1
  Li  Li18  1  0.70540500  0.69066300  0.00719800  1
  Li  Li19  1  0.62001000  0.36265600  0.72720200  1
  Li  Li20  1  0.90110900  0.15110900  0.75000000  1
  Li  Li21  1  0.37500000  0.12500000  0.25000000  1
  V  V22  1  0.00000000  0.00000000  0.50000000  1
  V  V23  1  0.00000000  0.50000000  0.00000000  1
  V  V24  1  0.50000000  0.00000000  0.00000000  1
  V  V25  1  0.50000000  0.00000000  0.50000000  1
  V  V26  1  0.50000000  0.50000000  0.50000000  1
  V  V27  1  0.50000000  0.50000000  0.00000000  1
  V  V28  1  0.00000000  0.00000000  0.00000000  1
  V  V29  1  0.00000000  0.50000000  0.50000000  1
  F  F30  1  0.82301900  0.83237500  0.81606300  1
  F  F31  1  0.49304400  0.67698100  0.50935600  1
  F  F32  1  0.12894100  0.66271800  0.27300400  1
  F  F33  1  0.36502300  0.37033600  0.23245400  1
  F  F34  1  0.88971400  0.85593700  0.22699600  1
  F  F35  1  0.18672700  0.48412200  0.02154300  1
  F  F36  1  0.96808900  0.96330200  0.78394500  1
  F  F37  1  0.46330200  0.17935700  0.99521300  1
  F  F38  1  0.66762500  0.98368900  0.99064400  1
  F  F39  1  0.32064300  0.81585600  0.28394500  1
  F  F40  1  0.83728200  0.61028600  0.46622300  1
  F  F41  1  0.98967600  0.66682700  0.97986100  1
  F  F42  1  0.63256900  0.86502300  0.49468700  1
  F  F43  1  0.49018600  0.51032400  0.17715100  1
  F  F44  1  0.16682700  0.68696500  0.67715100  1
  F  F45  1  0.64406300  0.37105900  0.03377700  1
  F  F46  1  0.68414400  0.46808900  0.50478700  1
  F  F47  1  0.98412200  0.46257900  0.29739500  1
  F  F48  1  0.48368900  0.99304400  0.31606300  1
  F  F49  1  0.18696500  0.00981400  0.52013900  1
  F  F50  1  0.63788200  0.13256900  0.26754600  1
  F  F51  1  0.96257900  0.16518400  0.47845700  1
  F  F52  1  0.33481600  0.31327300  0.79739500  1
  F  F53  1  0.12966400  0.86211800  0.99468700  1
  F  F54  1  0.87033600  0.13788200  0.00531300  1
  F  F55  1  0.66518400  0.68672700  0.20260500  1
  F  F56  1  0.03742100  0.83481600  0.52154300  1
  F  F57  1  0.36211800  0.86743100  0.73245400  1
  F  F58  1  0.81303500  0.99018600  0.47986100  1
  F  F59  1  0.51631100  0.00695600  0.68393700  1
  F  F60  1  0.01587800  0.53742100  0.70260500  1
  F  F61  1  0.31585600  0.53191100  0.49521300  1
  F  F62  1  0.35593700  0.62894100  0.96622300  1
  F  F63  1  0.83317300  0.31303500  0.32284900  1
  F  F64  1  0.50981400  0.48967600  0.82284900  1
  F  F65  1  0.36743100  0.13497700  0.50531300  1
  F  F66  1  0.01032400  0.33317300  0.02013900  1
  F  F67  1  0.16271800  0.38971400  0.53377700  1
  F  F68  1  0.67935700  0.18414400  0.71605500  1
  F  F69  1  0.33237500  0.01631100  0.00935600  1
  F  F70  1  0.53669800  0.82064300  0.00478700  1
  F  F71  1  0.03191100  0.03669800  0.21605500  1
  F  F72  1  0.81327300  0.51587800  0.97845700  1
  F  F73  1  0.11028600  0.14406300  0.77300400  1
  F  F74  1  0.63497700  0.62966400  0.76754600  1
  F  F75  1  0.87105900  0.33728200  0.72699600  1
  F  F76  1  0.50695600  0.32301900  0.49064400  1
  F  F77  1  0.17698100  0.16762500  0.18393700  1
