# generated using pymatgen
data_Ti4Mn(PO4)6
_symmetry_space_group_name_H-M   'P 1'
_cell_length_a   8.55023282
_cell_length_b   8.55023283
_cell_length_c   8.55023343
_cell_angle_alpha   60.11915693
_cell_angle_beta   60.11915696
_cell_angle_gamma   60.11915220
_symmetry_Int_Tables_number   1
_chemical_formula_structural   Ti4Mn(PO4)6
_chemical_formula_sum   'Ti4 Mn1 P6 O24'
_cell_volume   443.18970110
_cell_formula_units_Z   1
loop_
 _symmetry_equiv_pos_site_id
 _symmetry_equiv_pos_as_xyz
  1  'x, y, z'
loop_
 _atom_site_type_symbol
 _atom_site_label
 _atom_site_symmetry_multiplicity
 _atom_site_fract_x
 _atom_site_fract_y
 _atom_site_fract_z
 _atom_site_occupancy
  Ti  Ti0  1  0.85371784  0.85371784  0.85371784  1
  Ti  Ti1  1  0.14628216  0.14628216  0.14628216  1
  Ti  Ti2  1  0.63360917  0.63360917  0.63360917  1
  Ti  Ti3  1  0.36639083  0.36639083  0.36639083  1
  Mn  Mn4  1  -0.00000000  0.00000000  0.00000000  1
  P  P5  1  0.03078752  0.75340652  0.45624091  1
  P  P6  1  0.45624091  0.03078752  0.75340652  1
  P  P7  1  0.75340652  0.45624091  0.03078752  1
  P  P8  1  0.96921248  0.24659348  0.54375909  1
  P  P9  1  0.54375909  0.96921248  0.24659348  1
  P  P10  1  0.24659348  0.54375909  0.96921248  1
  O  O11  1  0.49263238  0.86355595  0.70830149  1
  O  O12  1  0.70830149  0.49263238  0.86355595  1
  O  O13  1  0.86355595  0.70830149  0.49263238  1
  O  O14  1  0.50736762  0.13644405  0.29169851  1
  O  O15  1  0.29169851  0.50736762  0.13644405  1
  O  O16  1  0.13644405  0.29169851  0.50736762  1
  O  O17  1  0.98950295  0.81671204  0.61677514  1
  O  O18  1  0.61677514  0.98950295  0.81671204  1
  O  O19  1  0.81671204  0.61677514  0.98950295  1
  O  O20  1  0.01049705  0.18328796  0.38322486  1
  O  O21  1  0.38322486  0.01049705  0.18328796  1
  O  O22  1  0.18328796  0.38322486  0.01049705  1
  O  O23  1  0.55220659  0.78385326  0.41494240  1
  O  O24  1  0.41494240  0.55220659  0.78385326  1
  O  O25  1  0.78385326  0.41494240  0.55220659  1
  O  O26  1  0.44779341  0.21614674  0.58505760  1
  O  O27  1  0.58505760  0.44779341  0.21614674  1
  O  O28  1  0.21614674  0.58505760  0.44779341  1
  O  O29  1  0.94158952  0.08291829  0.73741886  1
  O  O30  1  0.73741886  0.94158952  0.08291829  1
  O  O31  1  0.08291829  0.73741886  0.94158952  1
  O  O32  1  0.05841048  0.91708171  0.26258114  1
  O  O33  1  0.26258114  0.05841048  0.91708171  1
  O  O34  1  0.91708171  0.26258114  0.05841048  1
