# generated using pymatgen
data_MnF3
_symmetry_space_group_name_H-M   'P 1'
_cell_length_a   4.99340957
_cell_length_b   5.48641249
_cell_length_c   7.29325920
_cell_angle_alpha   89.99835370
_cell_angle_beta   89.99672227
_cell_angle_gamma   90.02304763
_symmetry_Int_Tables_number   1
_chemical_formula_structural   MnF3
_chemical_formula_sum   'Mn4 F12'
_cell_volume   199.80541685
_cell_formula_units_Z   4
loop_
 _symmetry_equiv_pos_site_id
 _symmetry_equiv_pos_as_xyz
  1  'x, y, z'
loop_
 _atom_site_type_symbol
 _atom_site_label
 _atom_site_symmetry_multiplicity
 _atom_site_fract_x
 _atom_site_fract_y
 _atom_site_fract_z
 _atom_site_occupancy
  Mn  Mn0  1  -0.00000000  0.50000000  -0.00000000  1
  Mn  Mn1  1  -0.00000000  0.50000000  0.50000000  1
  Mn  Mn2  1  0.50000000  0.00000000  -0.00000000  1
  Mn  Mn3  1  0.50000000  0.00000000  0.50000000  1
  F  F4  1  0.11559223  0.51144756  0.24987662  1
  F  F5  1  0.20435710  0.82176468  0.94388213  1
  F  F6  1  0.20452117  0.82178458  0.55614505  1
  F  F7  1  0.29547671  0.32196577  0.94391102  1
  F  F8  1  0.29531323  0.32205790  0.55616923  1
  F  F9  1  0.38417278  0.01152744  0.24985456  1
  F  F10  1  0.61582722  0.98847256  0.75014544  1
  F  F11  1  0.70452329  0.67803423  0.05608898  1
  F  F12  1  0.70468677  0.67794210  0.44383077  1
  F  F13  1  0.79564290  0.17823532  0.05611787  1
  F  F14  1  0.79547883  0.17821542  0.44385495  1
  F  F15  1  0.88440777  0.48855244  0.75012338  1
