# generated using pymatgen
data_ErTl(WO4)2
_symmetry_space_group_name_H-M   'P 1'
_cell_length_a   7.46451562
_cell_length_b   7.46451562
_cell_length_c   7.47923332
_cell_angle_alpha   62.20500501
_cell_angle_beta   62.20500501
_cell_angle_gamma   88.49169180
_symmetry_Int_Tables_number   1
_chemical_formula_structural   ErTl(WO4)2
_chemical_formula_sum   'Er2 Tl2 W4 O16'
_cell_volume   316.24294030
_cell_formula_units_Z   2
loop_
 _symmetry_equiv_pos_site_id
 _symmetry_equiv_pos_as_xyz
  1  'x, y, z'
loop_
 _atom_site_type_symbol
 _atom_site_label
 _atom_site_symmetry_multiplicity
 _atom_site_fract_x
 _atom_site_fract_y
 _atom_site_fract_z
 _atom_site_occupancy
  Er  Er0  1  0.77298997  0.22701003  0.75000000  1
  Er  Er1  1  0.22701003  0.77298997  0.25000000  1
  Tl  Tl2  1  0.20665831  0.79334169  0.75000000  1
  Tl  Tl3  1  0.79334169  0.20665831  0.25000000  1
  W  W4  1  0.69912140  0.69544189  0.76969070  1
  W  W5  1  0.30087860  0.30455811  0.23030930  1
  W  W6  1  0.30455811  0.30087860  0.73030930  1
  W  W7  1  0.69544189  0.69912140  0.26969070  1
  O  O8  1  0.61815320  0.76205861  0.55716619  1
  O  O9  1  0.38184680  0.23794139  0.44283381  1
  O  O10  1  0.23794139  0.38184680  0.94283381  1
  O  O11  1  0.76205861  0.61815320  0.05716619  1
  O  O12  1  0.37802949  0.06335022  0.87747500  1
  O  O13  1  0.62197051  0.93664978  0.12252500  1
  O  O14  1  0.93664978  0.62197051  0.62252500  1
  O  O15  1  0.06335022  0.37802949  0.37747500  1
  O  O16  1  0.58660701  0.36906569  0.96725521  1
  O  O17  1  0.41339299  0.63093431  0.03274479  1
  O  O18  1  0.63093431  0.41339299  0.53274479  1
  O  O19  1  0.36906569  0.58660701  0.46725521  1
  O  O20  1  0.78705804  0.95702722  0.69157545  1
  O  O21  1  0.21294196  0.04297278  0.30842455  1
  O  O22  1  0.04297278  0.21294196  0.80842455  1
  O  O23  1  0.95702722  0.78705804  0.19157545  1
