# generated using pymatgen
data_Co5(P3O11)2
_symmetry_space_group_name_H-M   'P 1'
_cell_length_a   12.63959858
_cell_length_b   6.65219062
_cell_length_c   10.39718319
_cell_angle_alpha   90.00000000
_cell_angle_beta   104.64146671
_cell_angle_gamma   90.00000000
_symmetry_Int_Tables_number   1
_chemical_formula_structural   Co5(P3O11)2
_chemical_formula_sum   'Co10 P12 O44'
_cell_volume   845.81722615
_cell_formula_units_Z   2
loop_
 _symmetry_equiv_pos_site_id
 _symmetry_equiv_pos_as_xyz
  1  'x, y, z'
loop_
 _atom_site_type_symbol
 _atom_site_label
 _atom_site_symmetry_multiplicity
 _atom_site_fract_x
 _atom_site_fract_y
 _atom_site_fract_z
 _atom_site_occupancy
  O  O0  1  0.85203909  0.54534519  0.17053044  1
  O  O1  1  0.99760705  0.20311467  0.14092403  1
  O  O2  1  0.00071140  0.28981291  0.36283713  1
  O  O3  1  0.99760714  0.29688429  0.64092358  1
  O  O4  1  0.00071148  0.21018605  0.86283668  1
  O  O5  1  0.83901813  0.91639964  0.22882943  1
  O  O6  1  0.83949477  0.52741036  0.44475416  1
  O  O7  1  0.72810535  0.19790175  0.05775363  1
  O  O8  1  0.85203918  0.95465466  0.67052999  1
  O  O9  1  0.83901739  0.58360021  0.72882969  1
  O  O10  1  0.00239286  0.79688474  0.85907644  1
  O  O11  1  0.99928851  0.71018650  0.63716334  1
  O  O12  1  0.00239277  0.70311511  0.35907593  1
  O  O13  1  0.99928842  0.78981335  0.13716282  1
  O  O14  1  0.14796081  0.45465421  0.82947003  1
  O  O15  1  0.16098260  0.08360124  0.77117033  1
  O  O16  1  0.16050514  0.47258904  0.55524535  1
  O  O17  1  0.27189456  0.80209765  0.94224588  1
  O  O18  1  0.14796073  0.04534623  0.32946951  1
  O  O19  1  0.16098252  0.41639920  0.27117078  1
  O  O20  1  0.24445088  0.78529997  0.67452827  1
  O  O21  1  0.16050505  0.02740992  0.05524580  1
  O  O22  1  0.27189530  0.69790219  0.44224658  1
  O  O23  1  0.37823567  0.19067714  0.94324333  1
  O  O24  1  0.24445080  0.71469988  0.17452871  1
  O  O25  1  0.36933087  0.12685775  0.65350778  1
  O  O26  1  0.36629395  0.50576690  0.64793427  1
  O  O27  1  0.75554902  0.21469943  0.32547124  1
  O  O28  1  0.37823642  0.30932182  0.44324306  1
  O  O29  1  0.36933079  0.37314121  0.15350823  1
  O  O30  1  0.36629387  0.99423295  0.14793472  1
  O  O31  1  0.46006205  0.67701068  0.34957305  1
  O  O32  1  0.53993786  0.32298873  0.65042742  1
  O  O33  1  0.63370604  0.00576646  0.85206575  1
  O  O34  1  0.63066912  0.62685819  0.84649224  1
  O  O35  1  0.62176432  0.69067759  0.55675670  1
  O  O36  1  0.53993777  0.17701024  0.15042691  1
  O  O37  1  0.63370678  0.49423251  0.35206549  1
  O  O38  1  0.63066903  0.87314166  0.34649173  1
  O  O39  1  0.75554911  0.28530101  0.82547176  1
  O  O40  1  0.62176423  0.80932226  0.05675714  1
  O  O41  1  0.72810543  0.30209869  0.55775414  1
  O  O42  1  0.83949485  0.97258948  0.94475467  1
  O  O43  1  0.46006214  0.82298917  0.84957260  1
  P  P44  1  0.25582511  0.61883068  0.57559109  1
  P  P45  1  0.25582585  0.88117065  0.07559178  1
  P  P46  1  0.41733634  0.30776275  0.59570115  1
  P  P47  1  0.58266365  0.80776171  0.90429887  1
  P  P48  1  0.41733625  0.19223769  0.09570064  1
  P  P49  1  0.08611292  0.23794102  0.27878268  1
  P  P50  1  0.58266357  0.69223814  0.40429932  1
  P  P51  1  0.74417489  0.11883024  0.92440894  1
  P  P52  1  0.74417480  0.38117020  0.42440842  1
  P  P53  1  0.91388699  0.76205838  0.72121779  1
  P  P54  1  0.08611300  0.26205942  0.77878223  1
  P  P55  1  0.91388690  0.73794146  0.22121728  1
  Co  Co56  1  0.86182335  0.25991876  0.20810450  1
  Co  Co57  1  0.86182343  0.24008168  0.70810501  1
  Co  Co58  1  0.66639669  0.99764976  0.20079328  1
  Co  Co59  1  0.66639677  0.50235068  0.70079379  1
  Co  Co60  1  0.33360313  0.49764872  0.29920668  1
  Co  Co61  1  0.33360322  0.00235113  0.79920623  1
  Co  Co62  1  0.13817647  0.75991920  0.29189546  1
  Co  Co63  1  0.00000000  0.00000000  0.00000000  1
  Co  Co64  1  0.13817656  0.74008213  0.79189501  1
  Co  Co65  1  0.00000008  0.50000044  0.49999955  1
