# generated using pymatgen
data_LiCr4(HgO4)2
_symmetry_space_group_name_H-M   'P 1'
_cell_length_a   6.54730932
_cell_length_b   6.54601830
_cell_length_c   6.54797912
_cell_angle_alpha   56.03968404
_cell_angle_beta   56.02699787
_cell_angle_gamma   56.04247920
_symmetry_Int_Tables_number   1
_chemical_formula_structural   LiCr4(HgO4)2
_chemical_formula_sum   'Li1 Cr4 Hg2 O8'
_cell_volume   180.22248766
_cell_formula_units_Z   1
loop_
 _symmetry_equiv_pos_site_id
 _symmetry_equiv_pos_as_xyz
  1  'x, y, z'
loop_
 _atom_site_type_symbol
 _atom_site_label
 _atom_site_symmetry_multiplicity
 _atom_site_fract_x
 _atom_site_fract_y
 _atom_site_fract_z
 _atom_site_occupancy
  Li  Li0  1  0.50000400  0.49998800  0.50001300  1
  Cr  Cr1  1  0.99999000  0.49998900  0.99998800  1
  Cr  Cr2  1  0.49998600  0.99999900  0.00001400  1
  Cr  Cr3  1  0.99999500  0.00000300  0.49999800  1
  Cr  Cr4  1  0.00000000  0.00002000  0.99995900  1
  Hg  Hg5  1  0.64964000  0.64971800  0.64959700  1
  Hg  Hg6  1  0.35036400  0.35029600  0.35040700  1
  O  O7  1  0.77893500  0.77881800  0.77895300  1
  O  O8  1  0.23837900  0.23829000  0.80118800  1
  O  O9  1  0.23831100  0.80114400  0.23832500  1
  O  O10  1  0.80115300  0.23829900  0.23841100  1
  O  O11  1  0.76168900  0.19885000  0.76167000  1
  O  O12  1  0.19884500  0.76169400  0.76159600  1
  O  O13  1  0.22108100  0.22117900  0.22106400  1
  O  O14  1  0.76162900  0.76171000  0.19881500  1
