# generated using pymatgen
data_LiMn2V4O8
_symmetry_space_group_name_H-M   'P 1'
_cell_length_a   6.03966225
_cell_length_b   6.41135086
_cell_length_c   6.02943747
_cell_angle_alpha   61.87405723
_cell_angle_beta   60.04993362
_cell_angle_gamma   61.57622095
_symmetry_Int_Tables_number   1
_chemical_formula_structural   LiMn2V4O8
_chemical_formula_sum   'Li1 Mn2 V4 O8'
_cell_volume   169.33047938
_cell_formula_units_Z   1
loop_
 _symmetry_equiv_pos_site_id
 _symmetry_equiv_pos_as_xyz
  1  'x, y, z'
loop_
 _atom_site_type_symbol
 _atom_site_label
 _atom_site_symmetry_multiplicity
 _atom_site_fract_x
 _atom_site_fract_y
 _atom_site_fract_z
 _atom_site_occupancy
  Li  Li0  1  0.00000000  0.50000000  0.00000000  1
  Mn  Mn1  1  0.14529700  0.06610800  0.14394000  1
  Mn  Mn2  1  0.85470200  0.93389000  0.85606300  1
  V  V3  1  0.50000000  0.50000100  0.99999900  1
  V  V4  1  0.50000000  0.99999800  0.50000000  1
  V  V5  1  0.50000000  0.50000100  0.50000000  1
  V  V6  1  0.99999900  0.50000100  0.50000000  1
  O  O7  1  0.73012500  0.27290600  0.24745800  1
  O  O8  1  0.75407000  0.71907400  0.75388700  1
  O  O9  1  0.24593100  0.28092600  0.24611300  1
  O  O10  1  0.24793500  0.27777800  0.72751000  1
  O  O11  1  0.72858400  0.30522700  0.73155300  1
  O  O12  1  0.26987500  0.72709400  0.75254100  1
  O  O13  1  0.75206700  0.72222300  0.27248900  1
  O  O14  1  0.27141600  0.69477400  0.26844700  1
