# generated using pymatgen
data_LiCr(PO3)3
_symmetry_space_group_name_H-M   'P 1'
_cell_length_a   9.58932493
_cell_length_b   9.57080631
_cell_length_c   9.41172873
_cell_angle_alpha   111.63963387
_cell_angle_beta   105.81479820
_cell_angle_gamma   106.76584112
_symmetry_Int_Tables_number   1
_chemical_formula_structural   LiCr(PO3)3
_chemical_formula_sum   'Li4 Cr4 P12 O36'
_cell_volume   695.62807261
_cell_formula_units_Z   4
loop_
 _symmetry_equiv_pos_site_id
 _symmetry_equiv_pos_as_xyz
  1  'x, y, z'
loop_
 _atom_site_type_symbol
 _atom_site_label
 _atom_site_symmetry_multiplicity
 _atom_site_fract_x
 _atom_site_fract_y
 _atom_site_fract_z
 _atom_site_occupancy
  Li  Li0  1  0.49652875  0.93406567  0.34799707  1
  Li  Li1  1  0.50347125  0.06593433  0.65200293  1
  Li  Li2  1  0.68599895  0.84343480  0.64687938  1
  Li  Li3  1  0.31400105  0.15656520  0.35312062  1
  Cr  Cr4  1  0.71703729  0.76848099  0.26240705  1
  Cr  Cr5  1  0.78154715  0.70425018  0.89954658  1
  Cr  Cr6  1  0.21845285  0.29574982  0.10045342  1
  Cr  Cr7  1  0.28296271  0.23151901  0.73759295  1
  P  P8  1  0.70101571  0.33020344  0.57557150  1
  P  P9  1  0.84376984  0.21293914  0.95015632  1
  P  P10  1  0.64705402  0.38917300  0.00930372  1
  P  P11  1  0.89461493  0.14835818  0.51559454  1
  P  P12  1  0.07816013  0.91350878  0.80898501  1
  P  P13  1  0.10538507  0.85164182  0.48440546  1
  P  P14  1  0.35294598  0.61082700  0.99069628  1
  P  P15  1  0.15623016  0.78706086  0.04984368  1
  P  P16  1  0.92183987  0.08649122  0.19101499  1
  P  P17  1  0.41090769  0.57903220  0.68545320  1
  P  P18  1  0.58909231  0.42096780  0.31454680  1
  P  P19  1  0.29898429  0.66979656  0.42442850  1
  O  O20  1  0.74894491  0.98764388  0.44607665  1
  O  O21  1  0.84675884  0.17642501  0.10259288  1
  O  O22  1  0.91050327  0.17781858  0.36440537  1
  O  O23  1  0.99333155  0.72895277  0.04384597  1
  O  O24  1  0.00666845  0.27104723  0.95615403  1
  O  O25  1  0.08949673  0.82218142  0.63559463  1
  O  O26  1  0.15324116  0.82357499  0.89740712  1
  O  O27  1  0.19428358  0.62789757  0.98896433  1
  O  O28  1  0.04968684  0.17301536  0.62917091  1
  O  O29  1  0.14181153  0.70180815  0.38850047  1
  O  O30  1  0.19565546  0.09380885  0.90017089  1
  O  O31  1  0.32475311  0.43558170  0.94549017  1
  O  O32  1  0.37404919  0.64983729  0.84649406  1
  O  O33  1  0.29634057  0.62375911  0.57043959  1
  O  O34  1  0.29285630  0.92591158  0.21052068  1
  O  O35  1  0.09217669  0.13156253  0.21832942  1
  O  O36  1  0.26462748  0.52233803  0.27082132  1
  O  O37  1  0.44531274  0.82694794  0.49160802  1
  O  O38  1  0.35861341  0.39678015  0.61111859  1
  O  O39  1  0.25105509  0.01235612  0.55392335  1
  O  O40  1  0.58145526  0.69210200  0.73392918  1
  O  O41  1  0.95031316  0.82698464  0.37082909  1
  O  O42  1  0.49027830  0.74505411  0.15591511  1
  O  O43  1  0.41854474  0.30789800  0.26607082  1
  O  O44  1  0.50972170  0.25494589  0.84408489  1
  O  O45  1  0.64138659  0.60321985  0.38888141  1
  O  O46  1  0.55468726  0.17305206  0.50839198  1
  O  O47  1  0.73537252  0.47766197  0.72917868  1
  O  O48  1  0.90782331  0.86843747  0.78167058  1
  O  O49  1  0.70714370  0.07408842  0.78947932  1
  O  O50  1  0.70365943  0.37624089  0.42956041  1
  O  O51  1  0.62595081  0.35016271  0.15350594  1
  O  O52  1  0.67524689  0.56441830  0.05450983  1
  O  O53  1  0.80434454  0.90619115  0.09982911  1
  O  O54  1  0.85818847  0.29819185  0.61149953  1
  O  O55  1  0.80571642  0.37210243  0.01103567  1
