# generated using pymatgen
data_Co(PO3)3
_symmetry_space_group_name_H-M   'P 1'
_cell_length_a   4.86743603
_cell_length_b   11.60135577
_cell_length_c   12.67920863
_cell_angle_alpha   90.00000000
_cell_angle_beta   90.00000000
_cell_angle_gamma   90.00000000
_symmetry_Int_Tables_number   1
_chemical_formula_structural   Co(PO3)3
_chemical_formula_sum   'Co4 P12 O36'
_cell_volume   715.98041991
_cell_formula_units_Z   4
loop_
 _symmetry_equiv_pos_site_id
 _symmetry_equiv_pos_as_xyz
  1  'x, y, z'
loop_
 _atom_site_type_symbol
 _atom_site_label
 _atom_site_symmetry_multiplicity
 _atom_site_fract_x
 _atom_site_fract_y
 _atom_site_fract_z
 _atom_site_occupancy
  Co  Co0  1  0.00000000  0.00000000  -0.00000000  1
  Co  Co1  1  0.00000000  0.00000000  0.50000000  1
  Co  Co2  1  0.00000000  0.50000000  -0.00000000  1
  Co  Co3  1  0.00000000  0.50000000  0.50000000  1
  P  P4  1  0.23295607  0.75000000  -0.00000000  1
  P  P5  1  0.23295607  0.75000000  0.50000000  1
  P  P6  1  0.49099040  0.07928117  0.63042333  1
  P  P7  1  0.49099040  0.07928117  0.86957667  1
  P  P8  1  0.49099040  0.42071883  0.13042333  1
  P  P9  1  0.49099040  0.42071883  0.36957667  1
  P  P10  1  0.50900960  0.57928117  0.63042333  1
  P  P11  1  0.50900960  0.57928117  0.86957667  1
  P  P12  1  0.50900960  0.92071883  0.13042333  1
  P  P13  1  0.50900960  0.92071883  0.36957667  1
  P  P14  1  0.76704393  0.25000000  -0.00000000  1
  P  P15  1  0.76704393  0.25000000  0.50000000  1
  O  O16  1  0.07757898  0.65203042  0.04667985  1
  O  O17  1  0.07757898  0.65203042  0.45332015  1
  O  O18  1  0.07757898  0.84796958  0.54667985  1
  O  O19  1  0.07757898  0.84796958  0.95332015  1
  O  O20  1  0.18902714  0.05943142  0.62117377  1
  O  O21  1  0.18902714  0.05943142  0.87882623  1
  O  O22  1  0.18902714  0.44056858  0.12117377  1
  O  O23  1  0.18902714  0.44056858  0.37882623  1
  O  O24  1  0.32255514  0.00968726  0.08449354  1
  O  O25  1  0.32255514  0.00968726  0.41550646  1
  O  O26  1  0.32255514  0.49031274  0.58449354  1
  O  O27  1  0.32255514  0.49031274  0.91550646  1
  O  O28  1  0.43678719  0.70424314  0.58787891  1
  O  O29  1  0.43678719  0.70424314  0.91212109  1
  O  O30  1  0.43678719  0.79575686  0.08787891  1
  O  O31  1  0.43678719  0.79575686  0.41212109  1
  O  O32  1  0.43709727  0.59666000  0.75000000  1
  O  O33  1  0.43709727  0.90334000  0.25000000  1
  O  O34  1  0.56290273  0.09666000  0.75000000  1
  O  O35  1  0.56290273  0.40334000  0.25000000  1
  O  O36  1  0.56321281  0.20424314  0.58787891  1
  O  O37  1  0.56321281  0.20424314  0.91212109  1
  O  O38  1  0.56321281  0.29575686  0.08787891  1
  O  O39  1  0.56321281  0.29575686  0.41212109  1
  O  O40  1  0.67744486  0.99031274  0.58449354  1
  O  O41  1  0.67744486  0.99031274  0.91550646  1
  O  O42  1  0.67744486  0.50968726  0.08449354  1
  O  O43  1  0.67744486  0.50968726  0.41550646  1
  O  O44  1  0.81097286  0.55943142  0.62117377  1
  O  O45  1  0.81097286  0.55943142  0.87882623  1
  O  O46  1  0.81097286  0.94056858  0.12117377  1
  O  O47  1  0.81097286  0.94056858  0.37882623  1
  O  O48  1  0.92242102  0.15203042  0.04667985  1
  O  O49  1  0.92242102  0.15203042  0.45332015  1
  O  O50  1  0.92242102  0.34796958  0.54667985  1
  O  O51  1  0.92242102  0.34796958  0.95332015  1
