# generated using pymatgen
data_WF6
_symmetry_space_group_name_H-M   'P 1'
_cell_length_a   4.96240744
_cell_length_b   8.53872035
_cell_length_c   9.38513328
_cell_angle_alpha   90.00000000
_cell_angle_beta   90.00000000
_cell_angle_gamma   90.00000000
_symmetry_Int_Tables_number   1
_chemical_formula_structural   WF6
_chemical_formula_sum   'W4 F24'
_cell_volume   397.67258657
_cell_formula_units_Z   4
loop_
 _symmetry_equiv_pos_site_id
 _symmetry_equiv_pos_as_xyz
  1  'x, y, z'
loop_
 _atom_site_type_symbol
 _atom_site_label
 _atom_site_symmetry_multiplicity
 _atom_site_fract_x
 _atom_site_fract_y
 _atom_site_fract_z
 _atom_site_occupancy
  W  W0  1  0.58300955  0.75000000  0.62786711  1
  W  W1  1  0.08300955  0.25000000  0.87213289  1
  W  W2  1  0.41699045  0.25000000  0.37213289  1
  W  W3  1  0.91699045  0.75000000  0.12786711  1
  F  F4  1  0.57076005  0.40337516  0.25913525  1
  F  F5  1  0.07076005  0.59662484  0.24086475  1
  F  F6  1  0.42923995  0.90337516  0.74086475  1
  F  F7  1  0.92923995  0.09662484  0.75913525  1
  F  F8  1  0.21922521  0.75000000  0.01224493  1
  F  F9  1  0.71922521  0.25000000  0.48775507  1
  F  F10  1  0.78077479  0.25000000  0.98775507  1
  F  F11  1  0.28077479  0.75000000  0.51224493  1
  F  F12  1  0.61440494  0.75000000  0.24377173  1
  F  F13  1  0.11440494  0.25000000  0.25622827  1
  F  F14  1  0.38559506  0.25000000  0.75622827  1
  F  F15  1  0.88559506  0.75000000  0.74377173  1
  F  F16  1  0.76132352  0.90273007  0.01443703  1
  F  F17  1  0.26132352  0.09726993  0.48556297  1
  F  F18  1  0.23867648  0.40273007  0.98556297  1
  F  F19  1  0.73867648  0.59726993  0.51443703  1
  F  F20  1  0.23867648  0.09726993  0.98556297  1
  F  F21  1  0.73867648  0.90273007  0.51443703  1
  F  F22  1  0.76132352  0.59726993  0.01443703  1
  F  F23  1  0.26132352  0.40273007  0.48556297  1
  F  F24  1  0.07076005  0.90337516  0.24086475  1
  F  F25  1  0.57076005  0.09662484  0.25913525  1
  F  F26  1  0.92923995  0.40337516  0.75913525  1
  F  F27  1  0.42923995  0.59662484  0.74086475  1
