# generated using pymatgen
data_Li3CrF6
_symmetry_space_group_name_H-M   'P 1'
_cell_length_a   8.27017105
_cell_length_b   8.27017105
_cell_length_c   9.89060431
_cell_angle_alpha   85.14975195
_cell_angle_beta   85.14975195
_cell_angle_gamma   62.17981203
_symmetry_Int_Tables_number   1
_chemical_formula_structural   Li3CrF6
_chemical_formula_sum   'Li18 Cr6 F36'
_cell_volume   595.36248399
_cell_formula_units_Z   6
loop_
 _symmetry_equiv_pos_site_id
 _symmetry_equiv_pos_as_xyz
  1  'x, y, z'
loop_
 _atom_site_type_symbol
 _atom_site_label
 _atom_site_symmetry_multiplicity
 _atom_site_fract_x
 _atom_site_fract_y
 _atom_site_fract_z
 _atom_site_occupancy
  Li  Li0  1  0.70706004  0.00714083  0.77064634  1
  Li  Li1  1  0.99285917  0.29293996  0.72935366  1
  Li  Li2  1  0.29293996  0.99285917  0.22935366  1
  Li  Li3  1  0.00714083  0.70706004  0.27064634  1
  Li  Li4  1  0.32750039  0.63263803  0.03168391  1
  Li  Li5  1  0.36736197  0.67249961  0.46831609  1
  Li  Li6  1  0.86817903  0.46779390  0.45225123  1
  Li  Li7  1  0.53220610  0.13182097  0.04774877  1
  Li  Li8  1  0.13182097  0.53220610  0.54774877  1
  Li  Li9  1  0.46779390  0.86817903  0.95225123  1
  Li  Li10  1  0.05888398  0.34512885  0.06682033  1
  Li  Li11  1  0.65487115  0.94111602  0.43317967  1
  Li  Li12  1  0.94111602  0.65487115  0.93317967  1
  Li  Li13  1  0.34512885  0.05888398  0.56682033  1
  Li  Li14  1  0.18554720  0.81445280  0.75000000  1
  Li  Li15  1  0.81445280  0.18554720  0.25000000  1
  Li  Li16  1  0.67249961  0.36736197  0.96831609  1
  Li  Li17  1  0.63263803  0.32750039  0.53168391  1
  Cr  Cr18  1  0.66440365  0.65991537  0.20818675  1
  Cr  Cr19  1  0.34008463  0.33559635  0.29181325  1
  Cr  Cr20  1  0.33559635  0.34008463  0.79181325  1
  Cr  Cr21  1  0.65991537  0.66440365  0.70818675  1
  Cr  Cr22  1  -0.00000000  0.00000000  0.50000000  1
  Cr  Cr23  1  -0.00000000  0.00000000  0.00000000  1
  F  F24  1  0.24325718  0.56430547  0.19187287  1
  F  F25  1  0.22928988  0.27258720  0.65387932  1
  F  F26  1  0.27258720  0.22928988  0.15387932  1
  F  F27  1  0.77071012  0.72741280  0.34612068  1
  F  F28  1  0.75860775  0.08522271  0.93714466  1
  F  F29  1  0.91477729  0.24139225  0.56285534  1
  F  F30  1  0.24139225  0.91477729  0.06285534  1
  F  F31  1  0.08522271  0.75860775  0.43714466  1
  F  F32  1  0.72741280  0.77071012  0.84612068  1
  F  F33  1  0.75947738  0.09453608  0.43357487  1
  F  F34  1  0.09453608  0.75947738  0.93357487  1
  F  F35  1  0.24052262  0.90546392  0.56642513  1
  F  F36  1  0.43569453  0.75674282  0.30812713  1
  F  F37  1  0.42874188  0.40866375  0.93591210  1
  F  F38  1  0.40866375  0.42874188  0.43591210  1
  F  F39  1  0.57125812  0.59133625  0.06408790  1
  F  F40  1  0.58335716  0.89902799  0.61150903  1
  F  F41  1  0.10097201  0.41664284  0.88849097  1
  F  F42  1  0.41664284  0.10097201  0.38849097  1
  F  F43  1  0.89902799  0.58335716  0.11150903  1
  F  F44  1  0.91930631  0.93187095  0.17050847  1
  F  F45  1  0.06812905  0.08069369  0.32949153  1
  F  F46  1  0.08069369  0.06812905  0.82949153  1
  F  F47  1  0.93187095  0.91930631  0.67050847  1
  F  F48  1  0.75674282  0.43569453  0.80812713  1
  F  F49  1  0.56430547  0.24325718  0.69187287  1
  F  F50  1  0.10371975  0.42976873  0.38471452  1
  F  F51  1  0.59133625  0.57125812  0.56408790  1
  F  F52  1  0.89628025  0.57023127  0.61528548  1
  F  F53  1  0.42976873  0.10371975  0.88471452  1
  F  F54  1  0.24954138  0.57102749  0.69172947  1
  F  F55  1  0.42897251  0.75045862  0.80827053  1
  F  F56  1  0.75045862  0.42897251  0.30827053  1
  F  F57  1  0.57102749  0.24954138  0.19172947  1
  F  F58  1  0.90546392  0.24052262  0.06642513  1
  F  F59  1  0.57023127  0.89628025  0.11528548  1
