# generated using pymatgen
data_VF4
_symmetry_space_group_name_H-M   'P 1'
_cell_length_a   6.17110075
_cell_length_b   6.17143930
_cell_length_c   5.27905075
_cell_angle_alpha   85.91226488
_cell_angle_beta   85.91289346
_cell_angle_gamma   48.14117306
_symmetry_Int_Tables_number   1
_chemical_formula_structural   VF4
_chemical_formula_sum   'V2 F8'
_cell_volume   149.28358957
_cell_formula_units_Z   2
loop_
 _symmetry_equiv_pos_site_id
 _symmetry_equiv_pos_as_xyz
  1  'x, y, z'
loop_
 _atom_site_type_symbol
 _atom_site_label
 _atom_site_symmetry_multiplicity
 _atom_site_fract_x
 _atom_site_fract_y
 _atom_site_fract_z
 _atom_site_occupancy
  V  V0  1  -0.00000000  0.50000000  0.00000000  1
  V  V1  1  0.50000000  0.00000000  0.50000000  1
  F  F2  1  0.96109373  0.24626624  0.99716316  1
  F  F3  1  0.77651540  0.64443743  0.31636845  1
  F  F4  1  0.64443872  0.77649992  0.81637140  1
  F  F5  1  0.75371208  0.03890629  0.50284871  1
  F  F6  1  0.24628792  0.96109371  0.49715129  1
  F  F7  1  0.35556128  0.22350008  0.18362760  1
  F  F8  1  0.22348460  0.35556257  0.68363155  1
  F  F9  1  0.03890627  0.75373376  0.00283684  1
