# generated using pymatgen
data_Li2NiGe3O8
_symmetry_space_group_name_H-M   'P 1'
_cell_length_a   8.18963880
_cell_length_b   8.18962990
_cell_length_c   8.18966278
_cell_angle_alpha   90.00008227
_cell_angle_beta   90.00001903
_cell_angle_gamma   90.00024389
_symmetry_Int_Tables_number   1
_chemical_formula_structural   Li2NiGe3O8
_chemical_formula_sum   'Li8 Ni4 Ge12 O32'
_cell_volume   549.28158996
_cell_formula_units_Z   4
loop_
 _symmetry_equiv_pos_site_id
 _symmetry_equiv_pos_as_xyz
  1  'x, y, z'
loop_
 _atom_site_type_symbol
 _atom_site_label
 _atom_site_symmetry_multiplicity
 _atom_site_fract_x
 _atom_site_fract_y
 _atom_site_fract_z
 _atom_site_occupancy
  Li  Li0  1  0.50338723  0.50339025  0.50338836  1
  Li  Li1  1  0.25338400  0.24661532  0.75338433  1
  Li  Li2  1  0.75338847  0.25338812  0.24661206  1
  Li  Li3  1  0.24661156  0.75339159  0.25338584  1
  Li  Li4  1  0.99661400  0.49660874  0.00338906  1
  Li  Li5  1  0.00338813  0.99661134  0.49661283  1
  Li  Li6  1  0.49661321  0.00338289  0.99661655  1
  Li  Li7  1  0.74661076  0.74661152  0.74661137  1
  Ni  Ni8  1  0.12500440  0.12499907  0.12499460  1
  Ni  Ni9  1  0.37500283  0.87500148  0.62499760  1
  Ni  Ni10  1  0.62500204  0.37499798  0.87499658  1
  Ni  Ni11  1  0.87500520  0.62500099  0.37499689  1
  Ge  Ge12  1  0.87729730  0.37268336  0.62501137  1
  Ge  Ge13  1  0.37268700  0.62500331  0.87730658  1
  Ge  Ge14  1  0.62730680  0.12499873  0.62268415  1
  Ge  Ge15  1  0.87270448  0.87501482  0.12267792  1
  Ge  Ge16  1  0.12269080  0.87268869  0.87500024  1
  Ge  Ge17  1  0.62267999  0.62729444  0.12498912  1
  Ge  Ge18  1  0.87500294  0.12268647  0.87269484  1
  Ge  Ge19  1  0.37499877  0.37731069  0.12731509  1
  Ge  Ge20  1  0.62498698  0.87732326  0.37270435  1
  Ge  Ge21  1  0.12732240  0.37498691  0.37729402  1
  Ge  Ge22  1  0.12501198  0.62270538  0.62732201  1
  Ge  Ge23  1  0.37731187  0.12731235  0.37500123  1
  O  O24  1  0.61584657  0.11584053  0.38415369  1
  O  O25  1  0.64908556  0.35664559  0.62385786  1
  O  O26  1  0.14908047  0.14335869  0.37614286  1
  O  O27  1  0.35664345  0.62386335  0.64908269  1
  O  O28  1  0.64335293  0.12386258  0.85091844  1
  O  O29  1  0.62385686  0.64907869  0.35664824  1
  O  O30  1  0.87613799  0.35091991  0.85664308  1
  O  O31  1  0.89907660  0.37386005  0.39335004  1
  O  O32  1  0.39908444  0.12613653  0.60664658  1
  O  O33  1  0.10091219  0.87386106  0.10664328  1
  O  O34  1  0.12614121  0.60664839  0.39907857  1
  O  O35  1  0.10664220  0.10091636  0.87385867  1
  O  O36  1  0.60664630  0.39908476  0.12614351  1
  O  O37  1  0.37385644  0.39335463  0.89908120  1
  O  O38  1  0.39335725  0.89908180  0.37386049  1
  O  O39  1  0.87385906  0.10664174  0.10091630  1
  O  O40  1  0.88415708  0.88415615  0.88416439  1
  O  O41  1  0.63415231  0.86584728  0.13414987  1
  O  O42  1  0.13415334  0.63415214  0.86584185  1
  O  O43  1  0.86584382  0.13416188  0.63415583  1
  O  O44  1  0.62614048  0.89335600  0.60091220  1
  O  O45  1  0.38416169  0.61584447  0.11584426  1
  O  O46  1  0.11585020  0.38415030  0.61585127  1
  O  O47  1  0.36583739  0.36584505  0.36584414  1
  O  O48  1  0.89334910  0.60092040  0.62614531  1
  O  O49  1  0.35091625  0.85664389  0.87614271  1
  O  O50  1  0.85092226  0.64334791  0.12385749  1
  O  O51  1  0.14335436  0.37613818  0.14908718  1
  O  O52  1  0.85664989  0.87614061  0.35092170  1
  O  O53  1  0.12385719  0.85091233  0.64335658  1
  O  O54  1  0.37613984  0.14908417  0.14335621  1
  O  O55  1  0.60092214  0.62613687  0.89335651  1
