# generated using pymatgen
data_Mo2P2O11
_symmetry_space_group_name_H-M   'P 1'
_cell_length_a   6.34476498
_cell_length_b   7.46981262
_cell_length_c   9.01900161
_cell_angle_alpha   74.96342838
_cell_angle_beta   90.00000000
_cell_angle_gamma   90.00000000
_symmetry_Int_Tables_number   1
_chemical_formula_structural   Mo2P2O11
_chemical_formula_sum   'Mo4 P4 O22'
_cell_volume   412.81276466
_cell_formula_units_Z   2
loop_
 _symmetry_equiv_pos_site_id
 _symmetry_equiv_pos_as_xyz
  1  'x, y, z'
loop_
 _atom_site_type_symbol
 _atom_site_label
 _atom_site_symmetry_multiplicity
 _atom_site_fract_x
 _atom_site_fract_y
 _atom_site_fract_z
 _atom_site_occupancy
  Mo  Mo0  1  0.75000000  0.82260995  0.85209047  1
  Mo  Mo1  1  0.75000000  0.60475049  0.28810236  1
  Mo  Mo2  1  0.25000000  0.39524951  0.71189764  1
  Mo  Mo3  1  0.25000000  0.17739005  0.14790953  1
  P  P4  1  0.25000000  0.93107789  0.88290697  1
  P  P5  1  0.75000000  0.48849002  0.66891868  1
  P  P6  1  0.25000000  0.51150998  0.33108132  1
  P  P7  1  0.75000000  0.06892211  0.11709303  1
  O  O8  1  0.75000000  0.96587978  0.67877863  1
  O  O9  1  0.05465089  0.80690219  0.88452035  1
  O  O10  1  0.44534911  0.80690219  0.88452035  1
  O  O11  1  0.75000000  0.90295944  0.25111775  1
  O  O12  1  0.25000000  0.98096501  0.03901531  1
  O  O13  1  0.75000000  0.59441269  0.79844097  1
  O  O14  1  0.25000000  0.62698322  0.65204654  1
  O  O15  1  0.75000000  0.62906599  0.51595585  1
  O  O16  1  0.05781731  0.63780391  0.30267885  1
  O  O17  1  0.44218269  0.63780391  0.30267885  1
  O  O18  1  0.75000000  0.64363625  0.08890013  1
  O  O19  1  0.25000000  0.35636375  0.91109987  1
  O  O20  1  0.55781731  0.36219609  0.69732115  1
  O  O21  1  0.94218269  0.36219609  0.69732115  1
  O  O22  1  0.25000000  0.37093401  0.48404415  1
  O  O23  1  0.75000000  0.37301678  0.34795346  1
  O  O24  1  0.25000000  0.40558731  0.20155903  1
  O  O25  1  0.75000000  0.01903499  0.96098469  1
  O  O26  1  0.25000000  0.09704056  0.74888225  1
  O  O27  1  0.55465089  0.19309781  0.11547965  1
  O  O28  1  0.94534911  0.19309781  0.11547965  1
  O  O29  1  0.25000000  0.03412022  0.32122137  1
