# generated using pymatgen
data_Mo2P3O13
_symmetry_space_group_name_H-M   'P 1'
_cell_length_a   8.78858105
_cell_length_b   9.03699812
_cell_length_c   9.03479730
_cell_angle_alpha   107.54644272
_cell_angle_beta   69.65445983
_cell_angle_gamma   69.62366916
_symmetry_Int_Tables_number   1
_chemical_formula_structural   Mo2P3O13
_chemical_formula_sum   'Mo4 P6 O26'
_cell_volume   553.03910877
_cell_formula_units_Z   2
loop_
 _symmetry_equiv_pos_site_id
 _symmetry_equiv_pos_as_xyz
  1  'x, y, z'
loop_
 _atom_site_type_symbol
 _atom_site_label
 _atom_site_symmetry_multiplicity
 _atom_site_fract_x
 _atom_site_fract_y
 _atom_site_fract_z
 _atom_site_occupancy
  Mo  Mo0  1  0.82528764  0.83732094  0.15730339  1
  Mo  Mo1  1  0.67465145  0.34246653  0.66278423  1
  Mo  Mo2  1  0.17471236  0.16267906  0.84269661  1
  Mo  Mo3  1  0.32534855  0.65753347  0.33721577  1
  P  P4  1  0.43876288  0.73383141  0.65609643  1
  P  P5  1  0.56123712  0.26616859  0.34390357  1
  P  P6  1  0.74998000  0.50813924  0.99195311  1
  P  P7  1  0.25002000  0.49186076  0.00804689  1
  P  P8  1  0.06129409  0.84387555  0.76618149  1
  P  P9  1  0.93870591  0.15612445  0.23381851  1
  O  O10  1  0.90691887  0.84180740  0.89935858  1
  O  O11  1  0.27659507  0.30278329  0.93915066  1
  O  O12  1  0.77621898  0.43947980  0.80297369  1
  O  O13  1  0.39509601  0.92785101  0.75214943  1
  O  O14  1  0.46271848  0.69064719  0.46922307  1
  O  O15  1  0.60490399  0.07214899  0.24785057  1
  O  O16  1  0.73398829  0.15055804  0.66887297  1
  O  O17  1  0.89514145  0.25137271  0.42793055  1
  O  O18  1  0.10485855  0.74862729  0.57206945  1
  O  O19  1  0.42352784  0.48608520  0.88317020  1
  O  O20  1  0.09308113  0.15819260  0.10064142  1
  O  O21  1  0.26601171  0.84944196  0.33112703  1
  O  O22  1  0.23395111  0.16788470  0.65033501  1
  O  O23  1  0.74983815  0.26530086  0.23513301  1
  O  O24  1  0.25016185  0.73469914  0.76486699  1
  O  O25  1  0.53728152  0.30935281  0.53077693  1
  O  O26  1  0.07626173  0.61664450  0.01404335  1
  O  O27  1  0.72340493  0.69721671  0.06084934  1
  O  O28  1  0.96320633  0.96901121  0.18948324  1
  O  O29  1  0.76604889  0.83211530  0.34966499  1
  O  O30  1  0.92373827  0.38335550  0.98595665  1
  O  O31  1  0.57647216  0.51391480  0.11682980  1
  O  O32  1  0.03679367  0.03098879  0.81051676  1
  O  O33  1  0.59346766  0.60002658  0.65736338  1
  O  O34  1  0.22378102  0.56052020  0.19702631  1
  O  O35  1  0.40653234  0.39997342  0.34263662  1
