# generated using pymatgen
data_Li3Cr(PO4)2
_symmetry_space_group_name_H-M   'P 1'
_cell_length_a   17.50325810
_cell_length_b   4.84221686
_cell_length_c   7.68090855
_cell_angle_alpha   54.06663047
_cell_angle_beta   90.00000000
_cell_angle_gamma   90.00000000
_symmetry_Int_Tables_number   1
_chemical_formula_structural   Li3Cr(PO4)2
_chemical_formula_sum   'Li12 Cr4 P8 O32'
_cell_volume   527.10830994
_cell_formula_units_Z   4
loop_
 _symmetry_equiv_pos_site_id
 _symmetry_equiv_pos_as_xyz
  1  'x, y, z'
loop_
 _atom_site_type_symbol
 _atom_site_label
 _atom_site_symmetry_multiplicity
 _atom_site_fract_x
 _atom_site_fract_y
 _atom_site_fract_z
 _atom_site_occupancy
  Li  Li0  1  0.44304305  0.99455982  0.78476539  1
  Li  Li1  1  0.19830876  0.62715309  0.68861370  1
  Li  Li2  1  0.30169124  0.62715309  0.18861370  1
  Li  Li3  1  0.55695695  0.00544018  0.21523461  1
  Li  Li4  1  0.05695695  0.99455982  0.28476539  1
  Li  Li5  1  0.80169124  0.37284691  0.31138630  1
  Li  Li6  1  0.61643053  0.72005707  0.99869236  1
  Li  Li7  1  0.11643053  0.27994293  0.50130764  1
  Li  Li8  1  0.94304305  0.00544018  0.71523461  1
  Li  Li9  1  0.38356947  0.27994293  0.00130764  1
  Li  Li10  1  0.69830876  0.37284691  0.81138630  1
  Li  Li11  1  0.88356947  0.72005707  0.49869236  1
  Cr  Cr12  1  0.62752403  0.18011237  0.51646688  1
  Cr  Cr13  1  0.37247597  0.81988763  0.48353312  1
  Cr  Cr14  1  0.87247597  0.18011237  0.01646688  1
  Cr  Cr15  1  0.12752403  0.81988763  0.98353312  1
  P  P16  1  0.46468968  0.50959379  0.27160729  1
  P  P17  1  0.53531032  0.49040621  0.72839271  1
  P  P18  1  0.28443113  0.11687651  0.71075103  1
  P  P19  1  0.78443113  0.88312349  0.78924897  1
  P  P20  1  0.21556887  0.11687651  0.21075103  1
  P  P21  1  0.96468968  0.49040621  0.22839271  1
  P  P22  1  0.03531032  0.50959379  0.77160729  1
  P  P23  1  0.71556887  0.88312349  0.28924897  1
  O  O24  1  0.30316246  0.14756072  0.23532518  1
  O  O25  1  0.43298837  0.17562304  0.47076686  1
  O  O26  1  0.43602336  0.56692597  0.06891774  1
  O  O27  1  0.06701163  0.17562304  0.97076686  1
  O  O28  1  0.69217323  0.53334977  0.49394243  1
  O  O29  1  0.17299196  0.04224266  0.40408398  1
  O  O30  1  0.80110034  0.16674292  0.81973270  1
  O  O31  1  0.82700804  0.95775734  0.59591602  1
  O  O32  1  0.93984127  0.18185908  0.22657845  1
  O  O33  1  0.56397664  0.43307403  0.93108226  1
  O  O34  1  0.30782677  0.46665023  0.50605757  1
  O  O35  1  0.93298837  0.82437696  0.02923314  1
  O  O36  1  0.06015873  0.81814092  0.77342155  1
  O  O37  1  0.44633951  0.48943376  0.72141313  1
  O  O38  1  0.80316246  0.85243928  0.26467482  1
  O  O39  1  0.69683754  0.85243928  0.76467482  1
  O  O40  1  0.94633951  0.51056624  0.77858687  1
  O  O41  1  0.69889966  0.16674292  0.31973270  1
  O  O42  1  0.43984127  0.81814092  0.27342155  1
  O  O43  1  0.56015873  0.18185908  0.72657845  1
  O  O44  1  0.32700804  0.04224266  0.90408398  1
  O  O45  1  0.80782677  0.53334977  0.99394243  1
  O  O46  1  0.06397664  0.56692597  0.56891774  1
  O  O47  1  0.55366049  0.51056624  0.27858687  1
  O  O48  1  0.19683754  0.14756072  0.73532518  1
  O  O49  1  0.19217323  0.46665023  0.00605757  1
  O  O50  1  0.56701163  0.82437696  0.52923314  1
  O  O51  1  0.05366049  0.48943376  0.22141313  1
  O  O52  1  0.67299196  0.95775734  0.09591602  1
  O  O53  1  0.30110034  0.83325708  0.68026730  1
  O  O54  1  0.93602336  0.43307403  0.43108226  1
  O  O55  1  0.19889966  0.83325708  0.18026730  1
