# generated using pymatgen
data_VF5
_symmetry_space_group_name_H-M   'P 1'
_cell_length_a   9.37390157
_cell_length_b   5.39181806
_cell_length_c   7.21377145
_cell_angle_alpha   89.54854562
_cell_angle_beta   90.00000000
_cell_angle_gamma   90.00000000
_symmetry_Int_Tables_number   1
_chemical_formula_structural   VF5
_chemical_formula_sum   'V4 F20'
_cell_volume   364.58980086
_cell_formula_units_Z   4
loop_
 _symmetry_equiv_pos_site_id
 _symmetry_equiv_pos_as_xyz
  1  'x, y, z'
loop_
 _atom_site_type_symbol
 _atom_site_label
 _atom_site_symmetry_multiplicity
 _atom_site_fract_x
 _atom_site_fract_y
 _atom_site_fract_z
 _atom_site_occupancy
  V  V0  1  0.39296835  0.98702120  0.56385198  1
  V  V1  1  0.77893296  0.51593096  0.11543344  1
  V  V2  1  0.27893296  0.48406904  0.88456656  1
  V  V3  1  0.89296835  0.01297880  0.43614802  1
  F  F4  1  0.25437230  0.98880276  0.40343723  1
  F  F5  1  0.48024465  0.98199705  0.77718260  1
  F  F6  1  0.76937775  0.77028886  0.31117512  1
  F  F7  1  0.48920949  0.75276615  0.46498698  1
  F  F8  1  0.98687687  0.77241979  0.53311867  1
  F  F9  1  0.78609185  0.74985741  0.95301282  1
  F  F10  1  0.28654474  0.72111822  0.04154750  1
  F  F11  1  0.27067693  0.73317651  0.68380316  1
  F  F12  1  0.95956902  0.51877236  0.17342405  1
  F  F13  1  0.59554010  0.51596202  0.14798290  1
  F  F14  1  0.09554010  0.48403798  0.85201710  1
  F  F15  1  0.45956902  0.48122764  0.82657595  1
  F  F16  1  0.77067693  0.26682349  0.31619684  1
  F  F17  1  0.78654474  0.27888178  0.95845250  1
  F  F18  1  0.28609185  0.25014259  0.04698718  1
  F  F19  1  0.48687687  0.22758021  0.46688133  1
  F  F20  1  0.98920949  0.24723385  0.53501302  1
  F  F21  1  0.26937775  0.22971114  0.68882488  1
  F  F22  1  0.98024465  0.01800295  0.22281740  1
  F  F23  1  0.75437230  0.01119724  0.59656277  1
