# generated using pymatgen
data_LiMn2F6
_symmetry_space_group_name_H-M   'P 1'
_cell_length_a   8.62361236
_cell_length_b   8.62183744
_cell_length_c   4.62325617
_cell_angle_alpha   90.00181346
_cell_angle_beta   90.00428099
_cell_angle_gamma   119.99124752
_symmetry_Int_Tables_number   1
_chemical_formula_structural   LiMn2F6
_chemical_formula_sum   'Li3 Mn6 F18'
_cell_volume   297.71858033
_cell_formula_units_Z   3
loop_
 _symmetry_equiv_pos_site_id
 _symmetry_equiv_pos_as_xyz
  1  'x, y, z'
loop_
 _atom_site_type_symbol
 _atom_site_label
 _atom_site_symmetry_multiplicity
 _atom_site_fract_x
 _atom_site_fract_y
 _atom_site_fract_z
 _atom_site_occupancy
  Li  Li0  1  0.33330036  0.66665488  0.50480544  1
  Li  Li1  1  -0.00025018  -0.00031090  -0.00000545  1
  Li  Li2  1  0.66669097  0.33332945  0.49520676  1
  Mn  Mn3  1  0.00001164  0.65054182  0.00002779  1
  Mn  Mn4  1  0.00001638  0.31605885  0.49996622  1
  Mn  Mn5  1  0.34945084  0.34948232  0.00007727  1
  Mn  Mn6  1  0.31606270  0.00003164  0.50000922  1
  Mn  Mn7  1  0.68390767  0.68390181  0.50001703  1
  Mn  Mn8  1  0.65053944  0.00001940  -0.00007787  1
  F  F9  1  0.10565416  0.87883551  0.77077225  1
  F  F10  1  0.21761667  0.77808890  0.27652933  1
  F  F11  1  0.10692200  0.54368442  0.74484017  1
  F  F12  1  0.43665233  0.89304231  0.74462219  1
  F  F13  1  0.12092749  0.22679292  0.77074699  1
  F  F14  1  0.22187404  0.43948747  0.27656665  1
  F  F15  1  0.56061796  0.78235398  0.27652929  1
  F  F16  1  0.22684463  0.12099138  0.22927388  1
  F  F17  1  0.45627339  0.56337032  0.74490980  1
  F  F18  1  0.43953249  0.22202322  0.72345709  1
  F  F19  1  0.77311864  0.89401389  0.77066310  1
  F  F20  1  0.56350130  0.45653676  0.25527103  1
  F  F21  1  0.54380425  0.10713612  0.25529012  1
  F  F22  1  0.89421464  0.77310388  0.22915606  1
  F  F23  1  0.78237673  0.56063787  0.72343984  1
  F  F24  1  0.77822267  0.21770580  0.72349694  1
  F  F25  1  0.89310786  0.43675763  0.25520208  1
  F  F26  1  0.87900892  0.10572736  0.22920281  1
