# generated using pymatgen
data_VF5
_symmetry_space_group_name_H-M   'P 1'
_cell_length_a   5.15730748
_cell_length_b   7.76432292
_cell_length_c   8.44768502
_cell_angle_alpha   90.00000000
_cell_angle_beta   90.00000000
_cell_angle_gamma   90.00000000
_symmetry_Int_Tables_number   1
_chemical_formula_structural   VF5
_chemical_formula_sum   'V4 F20'
_cell_volume   338.27065694
_cell_formula_units_Z   4
loop_
 _symmetry_equiv_pos_site_id
 _symmetry_equiv_pos_as_xyz
  1  'x, y, z'
loop_
 _atom_site_type_symbol
 _atom_site_label
 _atom_site_symmetry_multiplicity
 _atom_site_fract_x
 _atom_site_fract_y
 _atom_site_fract_z
 _atom_site_occupancy
  V  V0  1  0.23075024  0.43388584  0.25000000  1
  V  V1  1  0.26924976  0.93388584  0.75000000  1
  V  V2  1  0.73075024  0.06611416  0.25000000  1
  V  V3  1  0.76924976  0.56611416  0.75000000  1
  F  F4  1  0.97106735  0.03186719  0.75000000  1
  F  F5  1  0.04978627  0.61765835  0.25000000  1
  F  F6  1  0.07319775  0.70807891  0.75000000  1
  F  F7  1  0.22929182  0.39738398  0.04608503  1
  F  F8  1  0.22929182  0.39738398  0.45391497  1
  F  F9  1  0.27070818  0.89738398  0.95391497  1
  F  F10  1  0.27070818  0.89738398  0.54608503  1
  F  F11  1  0.42680225  0.20807891  0.25000000  1
  F  F12  1  0.45021373  0.11765835  0.75000000  1
  F  F13  1  0.52893265  0.53186719  0.25000000  1
  F  F14  1  0.47106735  0.46813281  0.75000000  1
  F  F15  1  0.54978627  0.88234165  0.25000000  1
  F  F16  1  0.57319775  0.79192109  0.75000000  1
  F  F17  1  0.72929182  0.10261602  0.45391497  1
  F  F18  1  0.72929182  0.10261602  0.04608503  1
  F  F19  1  0.77070818  0.60261602  0.95391497  1
  F  F20  1  0.77070818  0.60261602  0.54608503  1
  F  F21  1  0.92680225  0.29192109  0.25000000  1
  F  F22  1  0.95021373  0.38234165  0.75000000  1
  F  F23  1  0.02893265  0.96813281  0.25000000  1
