# generated using pymatgen
data_Mn3V2Cr3O16
_symmetry_space_group_name_H-M   'P 1'
_cell_length_a   5.87299459
_cell_length_b   5.87517135
_cell_length_c   8.83445853
_cell_angle_alpha   90.00905483
_cell_angle_beta   89.51567959
_cell_angle_gamma   119.66747171
_symmetry_Int_Tables_number   1
_chemical_formula_structural   Mn3V2Cr3O16
_chemical_formula_sum   'Mn3 V2 Cr3 O16'
_cell_volume   264.85978423
_cell_formula_units_Z   1
loop_
 _symmetry_equiv_pos_site_id
 _symmetry_equiv_pos_as_xyz
  1  'x, y, z'
loop_
 _atom_site_type_symbol
 _atom_site_label
 _atom_site_symmetry_multiplicity
 _atom_site_fract_x
 _atom_site_fract_y
 _atom_site_fract_z
 _atom_site_occupancy
  Mn  Mn0  1  0.65622600  0.82790000  0.20951900  1
  Mn  Mn1  1  0.82833200  0.65983400  0.71302000  1
  Mn  Mn2  1  0.82820500  0.16811900  0.71275600  1
  V  V3  1  0.33263200  0.66496600  0.50212600  1
  V  V4  1  0.66262500  0.33022000  0.00113700  1
  Cr  Cr5  1  0.16386900  0.82302200  0.21965000  1
  Cr  Cr6  1  0.16929600  0.33938400  0.20890800  1
  Cr  Cr7  1  0.33792800  0.16875200  0.71251000  1
  O  O8  1  0.17391600  0.82385300  0.59639200  1
  O  O9  1  0.05118200  0.53230100  0.34358500  1
  O  O10  1  0.33689900  0.67820000  0.10040400  1
  O  O11  1  0.99556000  0.98960800  0.30367200  1
  O  O12  1  0.98935100  0.99448200  0.81225600  1
  O  O13  1  0.17336600  0.34993400  0.59501900  1
  O  O14  1  0.47866400  0.95310400  0.33932500  1
  O  O15  1  0.48125500  0.53111200  0.33912000  1
  O  O16  1  0.35083800  0.17227900  0.09435100  1
  O  O17  1  0.65255800  0.82697700  0.59692600  1
  O  O18  1  0.52990500  0.48174400  0.84129900  1
  O  O19  1  0.53076500  0.04876100  0.84111400  1
  O  O20  1  0.67632300  0.33850500  0.60185800  1
  O  O21  1  0.82358900  0.64712400  0.09712200  1
  O  O22  1  0.95422200  0.47633400  0.83705800  1
  O  O23  1  0.82249700  0.17368400  0.09659500  1
