# generated using pymatgen
data_VF5
_symmetry_space_group_name_H-M   'P 1'
_cell_length_a   6.03617105
_cell_length_b   6.03617105
_cell_length_c   4.37037413
_cell_angle_alpha   90.00000000
_cell_angle_beta   90.00000000
_cell_angle_gamma   90.00000000
_symmetry_Int_Tables_number   1
_chemical_formula_structural   VF5
_chemical_formula_sum   'V2 F10'
_cell_volume   159.23615887
_cell_formula_units_Z   2
loop_
 _symmetry_equiv_pos_site_id
 _symmetry_equiv_pos_as_xyz
  1  'x, y, z'
loop_
 _atom_site_type_symbol
 _atom_site_label
 _atom_site_symmetry_multiplicity
 _atom_site_fract_x
 _atom_site_fract_y
 _atom_site_fract_z
 _atom_site_occupancy
  V  V0  1  -0.00000000  0.50000000  0.64720545  1
  V  V1  1  0.50000000  0.00000000  0.35279455  1
  F  F2  1  -0.00000000  0.50000000  0.25544612  1
  F  F3  1  0.07908008  0.23088671  0.74418038  1
  F  F4  1  0.23088671  0.92091992  0.25581962  1
  F  F5  1  0.26911329  0.57908008  0.74418038  1
  F  F6  1  0.42091992  0.26911329  0.25581962  1
  F  F7  1  0.50000000  0.00000000  0.74455388  1
  F  F8  1  0.57908008  0.73088671  0.25581962  1
  F  F9  1  0.73088671  0.42091992  0.74418038  1
  F  F10  1  0.76911329  0.07908008  0.25581962  1
  F  F11  1  0.92091992  0.76911329  0.74418038  1
