# generated using pymatgen
data_MnP2HO7
_symmetry_space_group_name_H-M   'P 1'
_cell_length_a   12.60042563
_cell_length_b   4.92967608
_cell_length_c   8.54110377
_cell_angle_alpha   66.43637738
_cell_angle_beta   90.00000000
_cell_angle_gamma   90.00000000
_symmetry_Int_Tables_number   1
_chemical_formula_structural   MnP2HO7
_chemical_formula_sum   'Mn4 P8 H4 O28'
_cell_volume   486.30123933
_cell_formula_units_Z   4
loop_
 _symmetry_equiv_pos_site_id
 _symmetry_equiv_pos_as_xyz
  1  'x, y, z'
loop_
 _atom_site_type_symbol
 _atom_site_label
 _atom_site_symmetry_multiplicity
 _atom_site_fract_x
 _atom_site_fract_y
 _atom_site_fract_z
 _atom_site_occupancy
  Mn  Mn0  1  0.12542307  0.13071272  0.49476531  1
  Mn  Mn1  1  0.37457693  0.13071272  0.99476531  1
  Mn  Mn2  1  0.87457693  0.86928728  0.50523469  1
  Mn  Mn3  1  0.62542307  0.86928728  0.00523469  1
  P  P4  1  0.03809208  0.40205002  0.75028630  1
  P  P5  1  0.46190792  0.40205002  0.25028630  1
  P  P6  1  0.96190792  0.59794998  0.24971370  1
  P  P7  1  0.53809208  0.59794998  0.74971370  1
  P  P8  1  0.32402891  0.82078888  0.74130481  1
  P  P9  1  0.17597109  0.82078888  0.24130481  1
  P  P10  1  0.67597109  0.17921112  0.25869519  1
  P  P11  1  0.82402891  0.17921112  0.75869519  1
  H  H12  1  0.17263143  0.48212168  0.89437972  1
  H  H13  1  0.32736857  0.48212168  0.39437972  1
  H  H14  1  0.82736857  0.51787832  0.10562028  1
  H  H15  1  0.67263143  0.51787832  0.60562028  1
  O  O16  1  0.43032018  0.74383558  0.66396232  1
  O  O17  1  0.06967982  0.74383558  0.16396232  1
  O  O18  1  0.56967982  0.25616442  0.33603768  1
  O  O19  1  0.93032018  0.25616442  0.83603768  1
  O  O20  1  0.09924162  0.18850995  0.69778693  1
  O  O21  1  0.40075838  0.18850995  0.19778693  1
  O  O22  1  0.90075838  0.81149005  0.30221307  1
  O  O23  1  0.59924162  0.81149005  0.80221307  1
  O  O24  1  0.29131880  0.53947017  0.88928043  1
  O  O25  1  0.20868120  0.53947017  0.38928043  1
  O  O26  1  0.70868120  0.46052983  0.11071957  1
  O  O27  1  0.79131880  0.46052983  0.61071957  1
  O  O28  1  0.01305859  0.69382310  0.59801428  1
  O  O29  1  0.48694141  0.69382310  0.09801428  1
  O  O30  1  0.98694141  0.30617690  0.40198572  1
  O  O31  1  0.51305859  0.30617690  0.90198572  1
  O  O32  1  0.35110213  0.07427842  0.79155617  1
  O  O33  1  0.14889787  0.07427842  0.29155617  1
  O  O34  1  0.64889787  0.92572158  0.20844383  1
  O  O35  1  0.85110213  0.92572158  0.70844383  1
  O  O36  1  0.24770590  0.90735159  0.59333776  1
  O  O37  1  0.25229410  0.90735159  0.09333776  1
  O  O38  1  0.75229410  0.09264841  0.40666224  1
  O  O39  1  0.74770590  0.09264841  0.90666224  1
  O  O40  1  0.09270529  0.45161291  0.89577808  1
  O  O41  1  0.40729471  0.45161291  0.39577808  1
  O  O42  1  0.90729471  0.54838709  0.10422192  1
  O  O43  1  0.59270529  0.54838709  0.60422192  1
