# generated using pymatgen
data_V2F7
_symmetry_space_group_name_H-M   'P 1'
_cell_length_a   6.36681834
_cell_length_b   7.24684275
_cell_length_c   7.25246189
_cell_angle_alpha   60.40264046
_cell_angle_beta   63.93194658
_cell_angle_gamma   63.90841472
_symmetry_Int_Tables_number   1
_chemical_formula_structural   V2F7
_chemical_formula_sum   'V4 F14'
_cell_volume   250.50683001
_cell_formula_units_Z   2
loop_
 _symmetry_equiv_pos_site_id
 _symmetry_equiv_pos_as_xyz
  1  'x, y, z'
loop_
 _atom_site_type_symbol
 _atom_site_label
 _atom_site_symmetry_multiplicity
 _atom_site_fract_x
 _atom_site_fract_y
 _atom_site_fract_z
 _atom_site_occupancy
  V  V0  1  0.50000000  0.50000000  -0.00000000  1
  V  V1  1  0.50000000  -0.00000000  0.50000000  1
  V  V2  1  0.50000000  -0.00000000  -0.00000000  1
  V  V3  1  -0.00000000  0.50000000  0.50000000  1
  F  F4  1  0.80379201  0.96791897  0.96117867  1
  F  F5  1  0.83102076  0.43620582  0.80843615  1
  F  F6  1  0.82779972  0.80955731  0.44148655  1
  F  F7  1  0.76627561  0.46474238  0.46562148  1
  F  F8  1  0.40019278  0.74718180  0.75270043  1
  F  F9  1  0.42560155  0.93870786  0.30911006  1
  F  F10  1  0.42138020  0.30859167  0.93904149  1
  F  F11  1  0.57861980  0.69140833  0.06095851  1
  F  F12  1  0.57439845  0.06129214  0.69088994  1
  F  F13  1  0.59980722  0.25281820  0.24729957  1
  F  F14  1  0.23372439  0.53525762  0.53437852  1
  F  F15  1  0.17220028  0.19044269  0.55851345  1
  F  F16  1  0.16897924  0.56379418  0.19156385  1
  F  F17  1  0.19620799  0.03208103  0.03882133  1
