# generated using pymatgen
data_VF5
_symmetry_space_group_name_H-M   'P 1'
_cell_length_a   13.05659519
_cell_length_b   5.37688666
_cell_length_c   4.87872772
_cell_angle_alpha   90.00000000
_cell_angle_beta   90.00000000
_cell_angle_gamma   90.00000000
_symmetry_Int_Tables_number   1
_chemical_formula_structural   VF5
_chemical_formula_sum   'V4 F20'
_cell_volume   342.50538368
_cell_formula_units_Z   4
loop_
 _symmetry_equiv_pos_site_id
 _symmetry_equiv_pos_as_xyz
  1  'x, y, z'
loop_
 _atom_site_type_symbol
 _atom_site_label
 _atom_site_symmetry_multiplicity
 _atom_site_fract_x
 _atom_site_fract_y
 _atom_site_fract_z
 _atom_site_occupancy
  V  V0  1  0.15526134  0.64345561  0.43845560  1
  V  V1  1  0.34473866  0.35654439  0.93845560  1
  V  V2  1  0.65526134  0.85654439  0.56154440  1
  V  V3  1  0.84473866  0.14345561  0.06154440  1
  F  F4  1  0.08061230  0.65060249  0.14727434  1
  F  F5  1  0.08279521  0.84173418  0.63037505  1
  F  F6  1  0.10182158  0.36675681  0.55581010  1
  F  F7  1  0.24748193  0.40542129  0.22943797  1
  F  F8  1  0.24233420  0.86395048  0.32040125  1
  F  F9  1  0.25766580  0.13604952  0.82040125  1
  F  F10  1  0.25251807  0.59457871  0.72943797  1
  F  F11  1  0.39817842  0.63324319  0.05581010  1
  F  F12  1  0.41720479  0.15826582  0.13037505  1
  F  F13  1  0.41938770  0.34939751  0.64727434  1
  F  F14  1  0.58061230  0.84939751  0.85272566  1
  F  F15  1  0.58279521  0.65826582  0.36962495  1
  F  F16  1  0.60182158  0.13324319  0.44418990  1
  F  F17  1  0.74748193  0.09457871  0.77056203  1
  F  F18  1  0.74233420  0.63604952  0.67959875  1
  F  F19  1  0.75766580  0.36395048  0.17959875  1
  F  F20  1  0.75251807  0.90542129  0.27056203  1
  F  F21  1  0.89817842  0.86675681  0.94418990  1
  F  F22  1  0.91720479  0.34173418  0.86962495  1
  F  F23  1  0.91938770  0.15060249  0.35272566  1
