# generated using pymatgen
data_Mn2F7
_symmetry_space_group_name_H-M   'P 1'
_cell_length_a   5.00013574
_cell_length_b   7.18642650
_cell_length_c   12.86286958
_cell_angle_alpha   82.48288121
_cell_angle_beta   90.00043822
_cell_angle_gamma   89.99722230
_symmetry_Int_Tables_number   1
_chemical_formula_structural   Mn2F7
_chemical_formula_sum   'Mn8 F28'
_cell_volume   458.23062576
_cell_formula_units_Z   4
loop_
 _symmetry_equiv_pos_site_id
 _symmetry_equiv_pos_as_xyz
  1  'x, y, z'
loop_
 _atom_site_type_symbol
 _atom_site_label
 _atom_site_symmetry_multiplicity
 _atom_site_fract_x
 _atom_site_fract_y
 _atom_site_fract_z
 _atom_site_occupancy
  Mn  Mn0  1  0.75427927  0.97159060  0.10941591  1
  Mn  Mn1  1  0.27173155  0.91910010  0.32164723  1
  Mn  Mn2  1  0.77203502  0.58026260  0.67923331  1
  Mn  Mn3  1  0.25276129  0.52571464  0.89045498  1
  Mn  Mn4  1  0.75276758  0.47424530  0.10955090  1
  Mn  Mn5  1  0.27198897  0.41977989  0.32074836  1
  Mn  Mn6  1  0.77182042  0.08091348  0.67836790  1
  Mn  Mn7  1  0.25434716  0.02836106  0.89059651  1
  F  F8  1  0.95759571  0.99177334  0.80835198  1
  F  F9  1  0.56032293  0.95462978  0.38894794  1
  F  F10  1  0.65855349  0.83003741  0.67983238  1
  F  F11  1  0.36891171  0.77747171  0.88712969  1
  F  F12  1  0.08393793  0.84455272  0.42947899  1
  F  F13  1  0.02796872  0.94131967  0.01945892  1
  F  F14  1  0.98060358  0.88795924  0.23365977  1
  F  F15  1  0.94722461  0.60072938  0.81275999  1
  F  F16  1  0.06978757  0.64799229  0.61930748  1
  F  F17  1  0.62901393  0.72486384  0.10120209  1
  F  F18  1  0.38186093  0.67358766  0.30477814  1
  F  F19  1  0.59919761  0.56105362  0.56667249  1
  F  F20  1  0.47341020  0.50602469  0.76268798  1
  F  F21  1  0.53174996  0.45213768  0.97759876  1
  F  F22  1  0.03168756  0.54780124  0.02239297  1
  F  F23  1  0.97336577  0.49399344  0.23731398  1
  F  F24  1  0.09923554  0.43898255  0.43332673  1
  F  F25  1  0.88186036  0.32642956  0.69526036  1
  F  F26  1  0.12903427  0.27516611  0.89874186  1
  F  F27  1  0.56976153  0.35197347  0.38065338  1
  F  F28  1  0.44719439  0.39936080  0.18722381  1
  F  F29  1  0.48066394  0.11203701  0.76635870  1
  F  F30  1  0.52807550  0.05866125  0.98054329  1
  F  F31  1  0.58392139  0.15548703  0.57056556  1
  F  F32  1  0.86885940  0.22241834  0.11286216  1
  F  F33  1  0.15847529  0.16999217  0.32018255  1
  F  F34  1  0.06039955  0.04539477  0.61104056  1
  F  F35  1  0.45754536  0.00820059  0.19164936  1
