# generated using pymatgen
data_Co(NiO2)4
_symmetry_space_group_name_H-M   'P 1'
_cell_length_a   10.19614864
_cell_length_b   10.19614864
_cell_length_c   14.46867620
_cell_angle_alpha   18.85191160
_cell_angle_beta   18.85191160
_cell_angle_gamma   32.46643664
_symmetry_Int_Tables_number   1
_chemical_formula_structural   Co(NiO2)4
_chemical_formula_sum   'Co1 Ni4 O8'
_cell_volume   136.28507285
_cell_formula_units_Z   1
loop_
 _symmetry_equiv_pos_site_id
 _symmetry_equiv_pos_as_xyz
  1  'x, y, z'
loop_
 _atom_site_type_symbol
 _atom_site_label
 _atom_site_symmetry_multiplicity
 _atom_site_fract_x
 _atom_site_fract_y
 _atom_site_fract_z
 _atom_site_occupancy
  Co  Co0  1  0.50000000  0.50000000  0.00000000  1
  Ni  Ni1  1  0.00000000  0.50000000  0.00000000  1
  Ni  Ni2  1  0.00000000  0.00000000  0.00000000  1
  Ni  Ni3  1  0.00000000  0.00000000  0.50000000  1
  Ni  Ni4  1  0.50000000  0.00000000  0.00000000  1
  O  O5  1  0.00142900  0.53917200  0.70898800  1
  O  O6  1  0.99857100  0.46082800  0.29101200  1
  O  O7  1  0.00354700  0.00354700  0.26301100  1
  O  O8  1  0.99645300  0.99645300  0.73698900  1
  O  O9  1  0.45881400  0.45881400  0.79158300  1
  O  O10  1  0.54118600  0.54118600  0.20841700  1
  O  O11  1  0.53917200  0.00142900  0.70898800  1
  O  O12  1  0.46082800  0.99857100  0.29101200  1
