# generated using pymatgen
data_VF5
_symmetry_space_group_name_H-M   'P 1'
_cell_length_a   4.92358194
_cell_length_b   9.09052903
_cell_length_c   7.96752596
_cell_angle_alpha   90.00000000
_cell_angle_beta   86.59626579
_cell_angle_gamma   90.00000000
_symmetry_Int_Tables_number   1
_chemical_formula_structural   VF5
_chemical_formula_sum   'V4 F20'
_cell_volume   355.98116979
_cell_formula_units_Z   4
loop_
 _symmetry_equiv_pos_site_id
 _symmetry_equiv_pos_as_xyz
  1  'x, y, z'
loop_
 _atom_site_type_symbol
 _atom_site_label
 _atom_site_symmetry_multiplicity
 _atom_site_fract_x
 _atom_site_fract_y
 _atom_site_fract_z
 _atom_site_occupancy
  V  V0  1  0.12647707  0.12320748  0.37533729  1
  V  V1  1  0.37352293  0.62320748  0.12466271  1
  V  V2  1  0.62647707  0.37679252  0.87533729  1
  V  V3  1  0.87352293  0.87679252  0.62466271  1
  F  F4  1  0.04635568  0.75608043  0.48530328  1
  F  F5  1  0.07524205  0.71900859  0.12905901  1
  F  F6  1  0.03566923  0.81385524  0.79492092  1
  F  F7  1  0.19685293  0.01195524  0.57595149  1
  F  F8  1  0.23082396  0.47226584  0.23314584  1
  F  F9  1  0.26917504  0.97226584  0.26685416  1
  F  F10  1  0.30314707  0.51195524  0.92404851  1
  F  F11  1  0.42475795  0.21900859  0.37094099  1
  F  F12  1  0.46433077  0.31385524  0.70507908  1
  F  F13  1  0.45364432  0.25608043  0.01469672  1
  F  F14  1  0.54635568  0.74391957  0.98530328  1
  F  F15  1  0.53566923  0.68614476  0.29492092  1
  F  F16  1  0.57524205  0.78099141  0.62905901  1
  F  F17  1  0.69685293  0.48804476  0.07595149  1
  F  F18  1  0.73082396  0.02773416  0.73314584  1
  F  F19  1  0.76917604  0.52773416  0.76685416  1
  F  F20  1  0.80314707  0.98804476  0.42404851  1
  F  F21  1  0.96433077  0.18614476  0.20507908  1
  F  F22  1  0.92475795  0.28099141  0.87094099  1
  F  F23  1  0.95364432  0.24391957  0.51469672  1
