# generated using pymatgen
data_Ni2(SO4)3
_symmetry_space_group_name_H-M   'P 1'
_cell_length_a   8.54126900
_cell_length_b   8.66649300
_cell_length_c   23.73132500
_cell_angle_alpha   90.00000000
_cell_angle_beta   90.00000000
_cell_angle_gamma   90.00000000
_symmetry_Int_Tables_number   1
_chemical_formula_structural   Ni2(SO4)3
_chemical_formula_sum   'Ni16 S24 O96'
_cell_volume   1756.66026330
_cell_formula_units_Z   8
loop_
 _symmetry_equiv_pos_site_id
 _symmetry_equiv_pos_as_xyz
  1  'x, y, z'
loop_
 _atom_site_type_symbol
 _atom_site_label
 _atom_site_symmetry_multiplicity
 _atom_site_fract_x
 _atom_site_fract_y
 _atom_site_fract_z
 _atom_site_occupancy
  Ni  Ni0  1  0.00154700  0.39860500  0.06105000  1
  Ni  Ni1  1  0.00154700  0.10139500  0.56105000  1
  Ni  Ni2  1  0.99412300  0.79852300  0.18161600  1
  Ni  Ni3  1  0.99412300  0.70147700  0.68161600  1
  Ni  Ni4  1  0.50587700  0.29852300  0.18161600  1
  Ni  Ni5  1  0.50587700  0.20147700  0.68161600  1
  Ni  Ni6  1  0.49845300  0.60139500  0.56105000  1
  Ni  Ni7  1  0.49845300  0.89860500  0.06105000  1
  Ni  Ni8  1  0.50154700  0.39860500  0.43895000  1
  Ni  Ni9  1  0.50154700  0.10139500  0.93895000  1
  Ni  Ni10  1  0.49412300  0.70147700  0.81838400  1
  Ni  Ni11  1  0.49412300  0.79852300  0.31838400  1
  Ni  Ni12  1  0.00587700  0.29852300  0.31838400  1
  Ni  Ni13  1  0.00587700  0.20147700  0.81838400  1
  Ni  Ni14  1  0.99845300  0.89860500  0.43895000  1
  Ni  Ni15  1  0.99845300  0.60139500  0.93895000  1
  S  S16  1  0.14234100  0.94823300  0.29974300  1
  S  S17  1  0.14234100  0.55176700  0.79974300  1
  S  S18  1  0.14542800  0.25526000  0.44676300  1
  S  S19  1  0.14542800  0.24474000  0.94676300  1
  S  S20  1  0.20100600  0.09206500  0.11736900  1
  S  S21  1  0.20100600  0.40793500  0.61736900  1
  S  S22  1  0.29899400  0.59206500  0.11736900  1
  S  S23  1  0.29899400  0.90793500  0.61736900  1
  S  S24  1  0.35457200  0.74474000  0.94676300  1
  S  S25  1  0.35457200  0.75526000  0.44676300  1
  S  S26  1  0.35765900  0.44823300  0.29974300  1
  S  S27  1  0.35765900  0.05176700  0.79974300  1
  S  S28  1  0.64234100  0.55176700  0.70025700  1
  S  S29  1  0.64234100  0.94823300  0.20025700  1
  S  S30  1  0.64542800  0.25526000  0.05323700  1
  S  S31  1  0.64542800  0.24474000  0.55323700  1
  S  S32  1  0.70100600  0.09206500  0.38263100  1
  S  S33  1  0.70100600  0.40793500  0.88263100  1
  S  S34  1  0.79899400  0.59206500  0.38263100  1
  S  S35  1  0.79899400  0.90793500  0.88263100  1
  S  S36  1  0.85457200  0.75526000  0.05323700  1
  S  S37  1  0.85457200  0.74474000  0.55323700  1
  S  S38  1  0.85765900  0.44823300  0.20025700  1
  S  S39  1  0.85765900  0.05176700  0.70025700  1
  O  O40  1  0.05568500  0.39090100  0.46337200  1
  O  O41  1  0.05568500  0.10909900  0.96337200  1
  O  O42  1  0.08796100  0.10093600  0.28042200  1
  O  O43  1  0.08796100  0.39906400  0.78042200  1
  O  O44  1  0.08143300  0.11031100  0.47501100  1
  O  O45  1  0.08143300  0.38968900  0.97501100  1
  O  O46  1  0.08488800  0.91001400  0.35670000  1
  O  O47  1  0.08488800  0.58998600  0.85670000  1
  O  O48  1  0.09624100  0.18795300  0.08191300  1
  O  O49  1  0.09624100  0.31204700  0.58191300  1
  O  O50  1  0.08795700  0.82512900  0.26055200  1
  O  O51  1  0.08795700  0.67487100  0.76055200  1
  O  O52  1  0.10070600  0.00156800  0.15623200  1
  O  O53  1  0.10070600  0.49843200  0.65623200  1
  O  O54  1  0.13864300  0.22912400  0.38519500  1
  O  O55  1  0.13864300  0.27087600  0.88519500  1
  O  O56  1  0.18288500  0.44828500  0.29777200  1
  O  O57  1  0.18288500  0.05171500  0.79777200  1
  O  O58  1  0.19275100  0.68766900  0.15133400  1
  O  O59  1  0.19275100  0.81233100  0.65133400  1
  O  O60  1  0.18907700  0.72811900  0.96527400  1
  O  O61  1  0.18907700  0.77188100  0.46527400  1
  O  O62  1  0.21385800  0.01197200  0.57845600  1
  O  O63  1  0.21385800  0.48802800  0.07845600  1
  O  O64  1  0.28614200  0.51197200  0.57845600  1
  O  O65  1  0.28614200  0.98802800  0.07845600  1
  O  O66  1  0.31092300  0.22811900  0.96527400  1
  O  O67  1  0.31092300  0.27188100  0.46527400  1
  O  O68  1  0.30724900  0.18766900  0.15133400  1
  O  O69  1  0.30724900  0.31233100  0.65133400  1
  O  O70  1  0.31711500  0.94828500  0.29777200  1
  O  O71  1  0.31711500  0.55171500  0.79777200  1
  O  O72  1  0.36135700  0.72912400  0.38519500  1
  O  O73  1  0.36135700  0.77087600  0.88519500  1
  O  O74  1  0.39929400  0.99843200  0.65623200  1
  O  O75  1  0.39929400  0.50156800  0.15623200  1
  O  O76  1  0.41204300  0.32512900  0.26055200  1
  O  O77  1  0.41204300  0.17487100  0.76055200  1
  O  O78  1  0.40375900  0.68795300  0.08191300  1
  O  O79  1  0.40375900  0.81204700  0.58191300  1
  O  O80  1  0.41511200  0.08998600  0.85670000  1
  O  O81  1  0.41511200  0.41001400  0.35670000  1
  O  O82  1  0.41856700  0.88968900  0.97501100  1
  O  O83  1  0.41856700  0.61031100  0.47501100  1
  O  O84  1  0.41203900  0.60093600  0.28042200  1
  O  O85  1  0.41203900  0.89906400  0.78042200  1
  O  O86  1  0.44431500  0.60909900  0.96337200  1
  O  O87  1  0.44431500  0.89090100  0.46337200  1
  O  O88  1  0.55568500  0.39090100  0.03662800  1
  O  O89  1  0.55568500  0.10909900  0.53662800  1
  O  O90  1  0.58796100  0.10093600  0.21957800  1
  O  O91  1  0.58796100  0.39906400  0.71957800  1
  O  O92  1  0.58143300  0.11031100  0.02498900  1
  O  O93  1  0.58143300  0.38968900  0.52498900  1
  O  O94  1  0.58488800  0.58998600  0.64330000  1
  O  O95  1  0.58488800  0.91001400  0.14330000  1
  O  O96  1  0.59624100  0.18795300  0.41808700  1
  O  O97  1  0.59624100  0.31204700  0.91808700  1
  O  O98  1  0.58795700  0.82512900  0.23944800  1
  O  O99  1  0.58795700  0.67487100  0.73944800  1
  O  O100  1  0.60070600  0.00156800  0.34376800  1
  O  O101  1  0.60070600  0.49843200  0.84376800  1
  O  O102  1  0.63864300  0.22912400  0.11480500  1
  O  O103  1  0.63864300  0.27087600  0.61480500  1
  O  O104  1  0.68288500  0.44828500  0.20222800  1
  O  O105  1  0.68288500  0.05171500  0.70222800  1
  O  O106  1  0.69275100  0.68766900  0.34866600  1
  O  O107  1  0.69275100  0.81233100  0.84866600  1
  O  O108  1  0.68907700  0.77188100  0.03472600  1
  O  O109  1  0.68907700  0.72811900  0.53472600  1
  O  O110  1  0.71385800  0.48802800  0.42154400  1
  O  O111  1  0.71385800  0.01197200  0.92154400  1
  O  O112  1  0.78614200  0.98802800  0.42154400  1
  O  O113  1  0.78614200  0.51197200  0.92154400  1
  O  O114  1  0.81092300  0.27188100  0.03472600  1
  O  O115  1  0.81092300  0.22811900  0.53472600  1
  O  O116  1  0.80724900  0.18766900  0.34866600  1
  O  O117  1  0.80724900  0.31233100  0.84866600  1
  O  O118  1  0.81711500  0.55171500  0.70222800  1
  O  O119  1  0.81711500  0.94828500  0.20222800  1
  O  O120  1  0.86135700  0.72912400  0.11480500  1
  O  O121  1  0.86135700  0.77087600  0.61480500  1
  O  O122  1  0.89929400  0.50156800  0.34376800  1
  O  O123  1  0.89929400  0.99843200  0.84376800  1
  O  O124  1  0.91204300  0.32512900  0.23944800  1
  O  O125  1  0.91204300  0.17487100  0.73944800  1
  O  O126  1  0.90375900  0.68795300  0.41808700  1
  O  O127  1  0.90375900  0.81204700  0.91808700  1
  O  O128  1  0.91511200  0.41001400  0.14330000  1
  O  O129  1  0.91511200  0.08998600  0.64330000  1
  O  O130  1  0.91856700  0.61031100  0.02498900  1
  O  O131  1  0.91856700  0.88968900  0.52498900  1
  O  O132  1  0.91203900  0.60093600  0.21957800  1
  O  O133  1  0.91203900  0.89906400  0.71957800  1
  O  O134  1  0.94431500  0.60909900  0.53662800  1
  O  O135  1  0.94431500  0.89090100  0.03662800  1
