# generated using pymatgen
data_Li8Mn15NiO32
_symmetry_space_group_name_H-M   'P 1'
_cell_length_a   8.37453439
_cell_length_b   8.37453439
_cell_length_c   8.37453439
_cell_angle_alpha   90.21078887
_cell_angle_beta   89.78921113
_cell_angle_gamma   89.78921113
_symmetry_Int_Tables_number   1
_chemical_formula_structural   Li8Mn15NiO32
_chemical_formula_sum   'Li8 Mn15 Ni1 O32'
_cell_volume   587.31781176
_cell_formula_units_Z   1
loop_
 _symmetry_equiv_pos_site_id
 _symmetry_equiv_pos_as_xyz
  1  'x, y, z'
loop_
 _atom_site_type_symbol
 _atom_site_label
 _atom_site_symmetry_multiplicity
 _atom_site_fract_x
 _atom_site_fract_y
 _atom_site_fract_z
 _atom_site_occupancy
  Li  Li0  1  0.00352600  0.00146300  0.00098900  1
  Li  Li1  1  0.24647400  0.24901100  0.24853700  1
  Li  Li2  1  0.25146300  0.75352600  0.74901100  1
  Li  Li3  1  0.49901100  0.99647400  0.50146300  1
  Li  Li4  1  0.50187600  0.49812400  0.99812400  1
  Li  Li5  1  0.74812400  0.25187600  0.75187600  1
  Li  Li6  1  0.75098900  0.74853700  0.25352600  1
  Li  Li7  1  0.99853700  0.50098900  0.49647400  1
  Mn  Mn8  1  0.12036500  0.12384300  0.62722900  1
  Mn  Mn9  1  0.12500000  0.37906100  0.87093900  1
  Mn  Mn10  1  0.12963500  0.62277100  0.12615700  1
  Mn  Mn11  1  0.37444000  0.37500000  0.62444000  1
  Mn  Mn12  1  0.36839100  0.11839100  0.87500000  1
  Mn  Mn13  1  0.37722900  0.62615700  0.37036500  1
  Mn  Mn14  1  0.37384300  0.87036500  0.12277100  1
  Mn  Mn15  1  0.62093900  0.37093900  0.37500000  1
  Mn  Mn16  1  0.62500000  0.12444000  0.12556000  1
  Mn  Mn17  1  0.62500000  0.63160900  0.61839100  1
  Mn  Mn18  1  0.62906100  0.87500000  0.87906100  1
  Mn  Mn19  1  0.87615700  0.12722900  0.37963500  1
  Mn  Mn20  1  0.88160900  0.37500000  0.13160900  1
  Mn  Mn21  1  0.87277100  0.87963500  0.62384300  1
  Mn  Mn22  1  0.87556000  0.62556000  0.87500000  1
  Ni  Ni23  1  0.12500000  0.87500000  0.37500000  1
  O  O24  1  0.10551200  0.12376200  0.39790400  1
  O  O25  1  0.10209600  0.89448800  0.62376200  1
  O  O26  1  0.11339100  0.61250600  0.88890100  1
  O  O27  1  0.12745600  0.39139000  0.10170100  1
  O  O28  1  0.12254400  0.14829900  0.85861000  1
  O  O29  1  0.13660900  0.36109900  0.63749400  1
  O  O30  1  0.14790400  0.62623800  0.35551200  1
  O  O31  1  0.14448800  0.85209600  0.12623800  1
  O  O32  1  0.34874200  0.11626600  0.64404700  1
  O  O33  1  0.35582100  0.37066800  0.85814100  1
  O  O34  1  0.36413000  0.63587000  0.13587000  1
  O  O35  1  0.37376200  0.85551200  0.35209600  1
  O  O36  1  0.39404700  0.63373500  0.59874200  1
  O  O37  1  0.38749400  0.38890100  0.38660900  1
  O  O38  1  0.36626600  0.09874200  0.10595300  1
  O  O39  1  0.39829900  0.87254400  0.89139000  1
  O  O40  1  0.60814100  0.37933200  0.60582100  1
  O  O41  1  0.60861000  0.60170100  0.37254400  1
  O  O42  1  0.61109900  0.88660900  0.11250600  1
  O  O43  1  0.62066800  0.10582100  0.89185900  1
  O  O44  1  0.62933200  0.35814100  0.14417900  1
  O  O45  1  0.63890100  0.13749400  0.36339100  1
  O  O46  1  0.64139000  0.87745600  0.64829900  1
  O  O47  1  0.64185900  0.64417900  0.87066800  1
  O  O48  1  0.85170100  0.35861000  0.37745600  1
  O  O49  1  0.88373500  0.14404700  0.15125800  1
  O  O50  1  0.86250600  0.86339100  0.86109900  1
  O  O51  1  0.85595300  0.65125800  0.61626500  1
  O  O52  1  0.87623800  0.89790400  0.39448800  1
  O  O53  1  0.88587000  0.11413000  0.61413000  1
  O  O54  1  0.89417900  0.39185900  0.87933200  1
  O  O55  1  0.90125800  0.60595300  0.13373500  1
