# generated using pymatgen
data_Cu2(SO4)3
_symmetry_space_group_name_H-M   'P 1'
_cell_length_a   8.41060701
_cell_length_b   8.49059402
_cell_length_c   24.01084703
_cell_angle_alpha   90.00549739
_cell_angle_beta   90.00129609
_cell_angle_gamma   90.00589865
_symmetry_Int_Tables_number   1
_chemical_formula_structural   Cu2(SO4)3
_chemical_formula_sum   'Cu16 S24 O96'
_cell_volume   1714.63977088
_cell_formula_units_Z   8
loop_
 _symmetry_equiv_pos_site_id
 _symmetry_equiv_pos_as_xyz
  1  'x, y, z'
loop_
 _atom_site_type_symbol
 _atom_site_label
 _atom_site_symmetry_multiplicity
 _atom_site_fract_x
 _atom_site_fract_y
 _atom_site_fract_z
 _atom_site_occupancy
  Cu  Cu0  1  0.00296700  0.40015500  0.06364200  1
  Cu  Cu1  1  0.00286900  0.09986400  0.56364500  1
  Cu  Cu2  1  0.99356000  0.79959700  0.17998700  1
  Cu  Cu3  1  0.99330200  0.69996600  0.67979800  1
  Cu  Cu4  1  0.50640300  0.29954100  0.17997900  1
  Cu  Cu5  1  0.50631200  0.20022400  0.67983000  1
  Cu  Cu6  1  0.49722000  0.59988100  0.56365400  1
  Cu  Cu7  1  0.49710500  0.90025100  0.06359000  1
  Cu  Cu8  1  0.50287800  0.40026400  0.43642700  1
  Cu  Cu9  1  0.50281100  0.09964500  0.93643000  1
  Cu  Cu10  1  0.49360800  0.70031100  0.81998600  1
  Cu  Cu11  1  0.49354600  0.79958600  0.31999700  1
  Cu  Cu12  1  0.00644000  0.29956200  0.31999500  1
  Cu  Cu13  1  0.00643000  0.20025300  0.82001600  1
  Cu  Cu14  1  0.99718100  0.90033800  0.43642400  1
  Cu  Cu15  1  0.99721400  0.59963000  0.93644200  1
  S  S16  1  0.14281800  0.94747000  0.29877400  1
  S  S17  1  0.14289800  0.55265100  0.79873800  1
  S  S18  1  0.14748800  0.25852700  0.44591200  1
  S  S19  1  0.14745500  0.24154600  0.94589700  1
  S  S20  1  0.19818600  0.08936700  0.11679000  1
  S  S21  1  0.19791800  0.41064900  0.61675400  1
  S  S22  1  0.30169800  0.58925000  0.11679900  1
  S  S23  1  0.30182800  0.91070100  0.61674700  1
  S  S24  1  0.35258000  0.74156600  0.94590300  1
  S  S25  1  0.35257900  0.75844400  0.44589600  1
  S  S26  1  0.35720800  0.44745900  0.29879500  1
  S  S27  1  0.35714300  0.05255200  0.79875700  1
  S  S28  1  0.64279600  0.55278000  0.70127300  1
  S  S29  1  0.64280300  0.94754000  0.20124300  1
  S  S30  1  0.64743500  0.25850000  0.05411300  1
  S  S31  1  0.64738900  0.24139800  0.55405200  1
  S  S32  1  0.69801500  0.08928800  0.38327900  1
  S  S33  1  0.69814600  0.41070400  0.88326400  1
  S  S34  1  0.80190800  0.58923300  0.38328000  1
  S  S35  1  0.80184300  0.91073700  0.88326300  1
  S  S36  1  0.85265700  0.75838300  0.05410000  1
  S  S37  1  0.85269700  0.74136900  0.55409100  1
  S  S38  1  0.85718600  0.44754600  0.20124300  1
  S  S39  1  0.85714200  0.05254900  0.70129400  1
  O  O40  1  0.05638400  0.39193400  0.46424700  1
  O  O41  1  0.05627500  0.10800200  0.96423400  1
  O  O42  1  0.08516100  0.10493300  0.27949400  1
  O  O43  1  0.08515200  0.39523300  0.77948400  1
  O  O44  1  0.08423800  0.10515300  0.47235100  1
  O  O45  1  0.08418700  0.39489600  0.97238500  1
  O  O46  1  0.08526300  0.90788900  0.35475100  1
  O  O47  1  0.08511400  0.59222600  0.85470600  1
  O  O48  1  0.09132200  0.18584500  0.08098900  1
  O  O49  1  0.09158400  0.31429700  0.58097900  1
  O  O50  1  0.08753000  0.82480800  0.25936100  1
  O  O51  1  0.08732900  0.67540100  0.75931500  1
  O  O52  1  0.09716300  0.00101800  0.15679500  1
  O  O53  1  0.09750000  0.49890600  0.65693000  1
  O  O54  1  0.14220900  0.23061500  0.38432500  1
  O  O55  1  0.14214100  0.26941100  0.88433600  1
  O  O56  1  0.17887500  0.45713300  0.29683700  1
  O  O57  1  0.17895300  0.04289800  0.79683200  1
  O  O58  1  0.19049700  0.68479700  0.14944200  1
  O  O59  1  0.19078600  0.81525300  0.64967100  1
  O  O60  1  0.18147400  0.73236900  0.96315700  1
  O  O61  1  0.18157400  0.76757300  0.46318000  1
  O  O62  1  0.21921300  0.01914500  0.57683300  1
  O  O63  1  0.21918300  0.48069000  0.07679200  1
  O  O64  1  0.28072200  0.51918800  0.57681400  1
  O  O65  1  0.28070000  0.98073300  0.07683200  1
  O  O66  1  0.31848000  0.23238600  0.96317400  1
  O  O67  1  0.31852700  0.26764900  0.46318200  1
  O  O68  1  0.30943200  0.18488300  0.14943900  1
  O  O69  1  0.30925400  0.31527000  0.64963100  1
  O  O70  1  0.32115300  0.95714600  0.29682400  1
  O  O71  1  0.32102600  0.54278500  0.79684100  1
  O  O72  1  0.35780300  0.73062400  0.38430400  1
  O  O73  1  0.35784900  0.76939700  0.88433200  1
  O  O74  1  0.40251400  0.99900300  0.65691100  1
  O  O75  1  0.40277000  0.50093100  0.15680400  1
  O  O76  1  0.41247300  0.32481300  0.25937900  1
  O  O77  1  0.41254600  0.17527800  0.75933100  1
  O  O78  1  0.40858200  0.68576800  0.08102200  1
  O  O79  1  0.40843600  0.81428300  0.58100700  1
  O  O80  1  0.41474900  0.09211200  0.85473400  1
  O  O81  1  0.41468600  0.40790300  0.35477000  1
  O  O82  1  0.41585400  0.89486900  0.97237700  1
  O  O83  1  0.41583300  0.60505100  0.47232000  1
  O  O84  1  0.41484300  0.60494400  0.27951100  1
  O  O85  1  0.41473800  0.89522300  0.77953500  1
  O  O86  1  0.44370000  0.60802500  0.96423600  1
  O  O87  1  0.44367700  0.89186000  0.46424500  1
  O  O88  1  0.55630200  0.39202300  0.03576400  1
  O  O89  1  0.55625100  0.10797800  0.53578600  1
  O  O90  1  0.58524200  0.10493000  0.22047500  1
  O  O91  1  0.58558400  0.39503100  0.72044400  1
  O  O92  1  0.58430400  0.10509900  0.02763100  1
  O  O93  1  0.58420500  0.39492800  0.52758700  1
  O  O94  1  0.58517600  0.59213900  0.64527000  1
  O  O95  1  0.58519800  0.90787200  0.14520400  1
  O  O96  1  0.59143600  0.18560700  0.41885900  1
  O  O97  1  0.59137900  0.31426400  0.91886200  1
  O  O98  1  0.58748100  0.82476900  0.24068900  1
  O  O99  1  0.58747900  0.67518100  0.74066900  1
  O  O100  1  0.59716800  0.00116000  0.34324000  1
  O  O101  1  0.59719300  0.49893300  0.84323500  1
  O  O102  1  0.64223000  0.23062500  0.11567000  1
  O  O103  1  0.64219700  0.26944800  0.61564600  1
  O  O104  1  0.67881600  0.45713900  0.20316800  1
  O  O105  1  0.67870400  0.04300300  0.70320000  1
  O  O106  1  0.69054200  0.68481300  0.35058100  1
  O  O107  1  0.69054600  0.81518800  0.85057600  1
  O  O108  1  0.68137200  0.76757200  0.03681400  1
  O  O109  1  0.68143900  0.73251800  0.53685700  1
  O  O110  1  0.71933100  0.48066700  0.42308100  1
  O  O111  1  0.71932300  0.01932400  0.92308900  1
  O  O112  1  0.78059700  0.98075800  0.42308500  1
  O  O113  1  0.78071600  0.51938300  0.92308300  1
  O  O114  1  0.81873000  0.26764800  0.03681300  1
  O  O115  1  0.81859200  0.23247800  0.53683000  1
  O  O116  1  0.80941400  0.18483900  0.35058500  1
  O  O117  1  0.80942000  0.31518800  0.85056800  1
  O  O118  1  0.82133000  0.54293000  0.70320400  1
  O  O119  1  0.82117100  0.95713000  0.20316900  1
  O  O120  1  0.85781400  0.73054900  0.11565800  1
  O  O121  1  0.85796600  0.76944600  0.61575300  1
  O  O122  1  0.90275700  0.50110100  0.34324600  1
  O  O123  1  0.90279700  0.99893700  0.84320400  1
  O  O124  1  0.91252500  0.32475000  0.24067800  1
  O  O125  1  0.91242000  0.17518800  0.74064900  1
  O  O126  1  0.90847700  0.68559700  0.41885300  1
  O  O127  1  0.90863000  0.81427300  0.91888800  1
  O  O128  1  0.91478500  0.40781400  0.14520700  1
  O  O129  1  0.91470100  0.09203500  0.64526800  1
  O  O130  1  0.91595300  0.60495800  0.02762300  1
  O  O131  1  0.91590000  0.89506500  0.52765500  1
  O  O132  1  0.91480500  0.60492200  0.22047100  1
  O  O133  1  0.91483900  0.89499700  0.72047100  1
  O  O134  1  0.94388700  0.60805700  0.53581200  1
  O  O135  1  0.94376000  0.89192100  0.03575500  1
