data_image0
_chemical_formula_structural       Li4Zr8P12O48
_chemical_formula_sum              "Li4 Zr8 P12 O48"
_cell_length_a       8.81277
_cell_length_b       8.945199999999998
_cell_length_c       12.375000000000002
_cell_angle_alpha    90.0
_cell_angle_beta     90.80100000000002
_cell_angle_gamma    90.0

_space_group_name_H-M_alt    "P 1"
_space_group_IT_number       1

loop_
  _space_group_symop_operation_xyz
  'x, y, z'

loop_
  _atom_site_type_symbol
  _atom_site_label
  _atom_site_symmetry_multiplicity
  _atom_site_fract_x
  _atom_site_fract_y
  _atom_site_fract_z
  _atom_site_occupancy
  Li  Li1       1.0  0.20072335783206233  0.7233329236031445  0.17598228070284358  1.0000
  Li  Li2       1.0  0.700723357832063  0.7766670763968548  0.6759822807028437  1.0000
  Li  Li3       1.0  0.7992766421679368  0.2766670763968556  0.8240177192971565  1.0000
  Li  Li4       1.0  0.2992766421679376  0.22333292360314438  0.32401771929715684  1.0000
  Zr  Zr1       1.0  0.7451257491630431  0.9542871995200167  0.8881157556804055  1.0000
  Zr  Zr2       1.0  0.24512574916304294  0.5457128004799816  0.38811575568040524  1.0000
  Zr  Zr3       1.0  0.254874250836957  0.04571280047998228  0.11188424431959458  1.0000
  Zr  Zr4       1.0  0.7548742508369568  0.4542871995200182  0.6118842443195948  1.0000
  Zr  Zr5       1.0  0.7501831653524795  0.529151062932444  0.12390077696746113  1.0000
  Zr  Zr6       1.0  0.25018316535247953  0.9708489370675584  0.6239007769674613  1.0000
  Zr  Zr7       1.0  0.24981683464752044  0.47084893706755604  0.8760992230325378  1.0000
  Zr  Zr8       1.0  0.7498168346475205  0.02915106293244338  0.37609922303253873  1.0000
  P   P1        1.0  0.889280891862255  0.6025792240022715  0.8548523374023335  1.0000
  P   P2        1.0  0.38928089186225484  0.8974207759977282  0.35485233740233496  1.0000
  P   P3        1.0  0.11071910813774465  0.39742077599772885  0.14514766259766548  1.0000
  P   P4        1.0  0.6107191081377451  0.10257922400227111  0.6451476625976651  1.0000
  P   P5        1.0  0.9021456989864929  0.8799115702937872  0.14741479484659012  1.0000
  P   P6        1.0  0.4021456989864931  0.6200884297062127  0.6474147948465885  1.0000
  P   P7        1.0  0.09785430101350695  0.12008842970621311  0.8525852051534116  1.0000
  P   P8        1.0  0.597854301013507  0.3799115702937867  0.3525852051534097  1.0000
  P   P9        1.0  0.4625271381089724  0.7507163273023938  0.009998643493326496  1.0000
  P   P10       1.0  0.9625271381089728  0.749283672697606  0.5099986434933268  1.0000
  P   P11       1.0  0.5374728618910277  0.24928367269760612  0.9900013565066733  1.0000
  P   P12       1.0  0.03747286189102753  0.2507163273023938  0.49000135650667315  1.0000
  O   O1        1.0  0.8588997223322923  0.9098418449926309  0.027906550522268394  1.0000
  O   O2        1.0  0.35889972233229206  0.5901581550073676  0.5279065505222689  1.0000
  O   O3        1.0  0.14110027766770733  0.09015815500736735  0.9720934494777318  1.0000
  O   O4        1.0  0.6411002776677076  0.4098418449926331  0.47209344947773113  1.0000
  O   O5        1.0  0.8191683192799487  0.7533618078645289  0.8156133217758349  1.0000
  O   O6        1.0  0.3191683192799499  0.7466381921354702  0.3156133217758346  1.0000
  O   O7        1.0  0.1808316807200503  0.24663819213547136  0.18438667822416546  1.0000
  O   O8        1.0  0.680831680720051  0.25336180786452894  0.684386678224165  1.0000
  O   O9        1.0  0.5470662033127828  0.8679011334722689  0.9421257487974536  1.0000
  O   O10       1.0  0.047066203312782814  0.6320988665277313  0.4421257487974549  1.0000
  O   O11       1.0  0.4529337966872171  0.13209886652773142  0.05787425120254556  1.0000
  O   O12       1.0  0.9529337966872176  0.3679011334722685  0.557874251202545  1.0000
  O   O13       1.0  0.9257855163336446  0.09184889640380753  0.8357860634230554  1.0000
  O   O14       1.0  0.4257855163336438  0.40815110359619255  0.33578606342305606  1.0000
  O   O15       1.0  0.07421448366635595  0.908151103596193  0.16421393657694405  1.0000
  O   O16       1.0  0.5742144836663567  0.5918488964038084  0.6642139365769446  1.0000
  O   O17       1.0  0.6608030370238607  0.9788792384282733  0.7265483883943182  1.0000
  O   O18       1.0  0.16080303702386148  0.5211207615717258  0.22654838839431837  1.0000
  O   O19       1.0  0.33919696297613877  0.021120761571726664  0.27345161160568154  1.0000
  O   O20       1.0  0.8391969629761392  0.4788792384282741  0.773451611605682  1.0000
  O   O21       1.0  0.6661382728851154  0.17112073757765126  0.9264602840981202  1.0000
  O   O22       1.0  0.16613827288511668  0.32887926242234894  0.4264602840981219  1.0000
  O   O23       1.0  0.33386172711488343  0.8288792624223482  0.07353971590187867  1.0000
  O   O24       1.0  0.8338617271148845  0.6711207375776517  0.573539715901878  1.0000
  O   O25       1.0  0.8255936698729369  0.5614954983948367  0.9651674318633114  1.0000
  O   O26       1.0  0.3255936698729365  0.9385045016051651  0.46516743186331244  1.0000
  O   O27       1.0  0.17440633012706386  0.4385045016051642  0.03483256813668752  1.0000
  O   O28       1.0  0.6744063301270631  0.06149549839483586  0.5348325681366876  1.0000
  O   O29       1.0  0.8761726069322423  0.7147979623313364  0.1751501108976369  1.0000
  O   O30       1.0  0.3761726069322416  0.7852020376686637  0.675150110897636  1.0000
  O   O31       1.0  0.12382739306775818  0.28520203766866453  0.8248498891023639  1.0000
  O   O32       1.0  0.6238273930677577  0.21479796233133602  0.32484988910236257  1.0000
  O   O33       1.0  0.5700778597521617  0.6769284076678261  0.09202804598720342  1.0000
  O   O34       1.0  0.07007785975216294  0.8230715923321738  0.5920280459872038  1.0000
  O   O35       1.0  0.4299221402478374  0.3230715923321739  0.907971954012797  1.0000
  O   O36       1.0  0.9299221402478361  0.17692840766782608  0.40797195401279623  1.0000
  O   O37       1.0  0.9375737141044767  0.3853020935718615  0.14258961917004714  1.0000
  O   O38       1.0  0.4375737141044784  0.11469790642813911  0.6425896191700468  1.0000
  O   O39       1.0  0.06242628589552184  0.6146979064281402  0.8574103808299524  1.0000
  O   O40       1.0  0.5624262858955212  0.8853020935718597  0.3574103808299535  1.0000
  O   O41       1.0  0.688764753541813  0.48629986942518044  0.28163586782933553  1.0000
  O   O42       1.0  0.18876475354181274  0.013700130574819388  0.7816358678293358  1.0000
  O   O43       1.0  0.3112352464581877  0.5137001305748196  0.7183641321706641  1.0000
  O   O44       1.0  0.811235246458187  0.9862998694251807  0.21836413217066472  1.0000
  O   O45       1.0  0.6097302911746925  0.3617584738206228  0.06808394467426664  1.0000
  O   O46       1.0  0.10973029117469278  0.13824152617937707  0.5680839446742671  1.0000
  O   O47       1.0  0.3902697088253068  0.6382415261793771  0.9319160553257326  1.0000
  O   O48       1.0  0.8902697088253075  0.8617584738206227  0.43191605532573285  1.0000
