data_image0
_chemical_formula_structural       Li4Zr8P12O48
_chemical_formula_sum              "Li4 Zr8 P12 O48"
_cell_length_a       8.968485680977347
_cell_length_b       9.106229347293596
_cell_length_c       12.586001411775287
_cell_angle_alpha    90.0
_cell_angle_beta     90.80156302607158
_cell_angle_gamma    90.0

_space_group_name_H-M_alt    "P 1"
_space_group_IT_number       1

loop_
  _space_group_symop_operation_xyz
  'x, y, z'

loop_
  _atom_site_type_symbol
  _atom_site_label
  _atom_site_symmetry_multiplicity
  _atom_site_fract_x
  _atom_site_fract_y
  _atom_site_fract_z
  _atom_site_occupancy
  Li  Li1       1.0  0.21245312436641456  0.7253444450601477  0.17836679171914424  1.0000
  Li  Li2       1.0  0.7124531243664134  0.7746555549398524  0.6783667917191457  1.0000
  Li  Li3       1.0  0.7875468756335858  0.2746555549398518  0.8216332082808573  1.0000
  Li  Li4       1.0  0.28754687563358605  0.22534444506014842  0.3216332082808562  1.0000
  Zr  Zr1       1.0  0.7454924792918505  0.954390543591717  0.8897923488988219  1.0000
  Zr  Zr2       1.0  0.24549247929185056  0.545609456408283  0.3897923488988196  1.0000
  Zr  Zr3       1.0  0.2545075207081497  0.04560945640828265  0.11020765110118069  1.0000
  Zr  Zr4       1.0  0.7545075207081494  0.45439054359171727  0.6102076511011815  1.0000
  Zr  Zr5       1.0  0.7508584588610779  0.5257842979343529  0.12152679780084362  1.0000
  Zr  Zr6       1.0  0.25085845886107844  0.974215702065648  0.6215267978008449  1.0000
  Zr  Zr7       1.0  0.24914154113892262  0.47421570206564784  0.8784732021991586  1.0000
  Zr  Zr8       1.0  0.7491415411389226  0.025784297934352402  0.37847320219915687  1.0000
  P   P1        1.0  0.8843064578747936  0.5979651927816253  0.8550375466171346  1.0000
  P   P2        1.0  0.3843064578747932  0.9020348072183744  0.3550375466171327  1.0000
  P   P3        1.0  0.11569354212520735  0.4020348072183747  0.14496245338286792  1.0000
  P   P4        1.0  0.6156935421252068  0.09796519278162556  0.6449624533828695  1.0000
  P   P5        1.0  0.902594472245774  0.8789038128174738  0.14626149239529632  1.0000
  P   P6        1.0  0.40259447224577416  0.6210961871825248  0.646261492395298  1.0000
  P   P7        1.0  0.0974055277542262  0.12109618718252455  0.853738507604705  1.0000
  P   P8        1.0  0.5974055277542264  0.3789038128174752  0.35373850760470454  1.0000
  P   P9        1.0  0.46356304886841765  0.750065999780302  0.010639764476020245  1.0000
  P   P10       1.0  0.9635630488684167  0.749934000219698  0.5106397644760209  1.0000
  P   P11       1.0  0.5364369511315836  0.24993400021969778  0.989360235523981  1.0000
  P   P12       1.0  0.03643695113158294  0.2500659997803021  0.48936023552398067  1.0000
  O   O1        1.0  0.8495040516526283  0.9213817046901339  0.03242874488285343  1.0000
  O   O2        1.0  0.3495040516526282  0.5786182953098665  0.5324287448828539  1.0000
  O   O3        1.0  0.1504959483473722  0.07861829530986669  0.967571255117148  1.0000
  O   O4        1.0  0.6504959483473729  0.4213817046901332  0.46757125511714764  1.0000
  O   O5        1.0  0.8205206221717699  0.75181853650473  0.8218814461117183  1.0000
  O   O6        1.0  0.32052062217177  0.7481814634952704  0.3218814461117183  1.0000
  O   O7        1.0  0.17947937782823034  0.24818146349527018  0.17811855388828232  1.0000
  O   O8        1.0  0.679479377828231  0.25181853650472974  0.6781185538882853  1.0000
  O   O9        1.0  0.5538773892334088  0.8591206458606891  0.9425548291810818  1.0000
  O   O10       1.0  0.05387738923340733  0.6408793541393112  0.44255482918108185  1.0000
  O   O11       1.0  0.4461226107665931  0.14087935413931063  0.05744517081891936  1.0000
  O   O12       1.0  0.9461226107665954  0.35912064586068926  0.5574451708189198  1.0000
  O   O13       1.0  0.9254914703647145  0.09857166995179475  0.8456904153687037  1.0000
  O   O14       1.0  0.42549147036471374  0.4014283300482053  0.3456904153687034  1.0000
  O   O15       1.0  0.07450852963528637  0.901428330048206  0.15430958463129738  1.0000
  O   O16       1.0  0.5745085296352861  0.5985716699517942  0.6543095846312985  1.0000
  O   O17       1.0  0.6742839644493748  0.9808267450616346  0.7265923423347486  1.0000
  O   O18       1.0  0.1742839644493749  0.5191732549383669  0.22659234233474712  1.0000
  O   O19       1.0  0.3257160355506252  0.01917325493836684  0.2734076576652536  1.0000
  O   O20       1.0  0.8257160355506261  0.48082674506163375  0.7734076576652548  1.0000
  O   O21       1.0  0.6496008500222127  0.16342437662641773  0.9197688096997794  1.0000
  O   O22       1.0  0.14960085002221268  0.33657562337358216  0.41976880969977864  1.0000
  O   O23       1.0  0.35039914997778776  0.8365756233735828  0.08023119030022216  1.0000
  O   O24       1.0  0.8503991499777875  0.663424376626418  0.5802311903002223  1.0000
  O   O25       1.0  0.8259925848303269  0.5559617755416398  0.9645785010364641  1.0000
  O   O26       1.0  0.3259925848303273  0.9440382244583603  0.46457850103646287  1.0000
  O   O27       1.0  0.17400741516967305  0.4440382244583606  0.035421498963537607  1.0000
  O   O28       1.0  0.6740074151696733  0.05596177554163961  0.5354214989635384  1.0000
  O   O29       1.0  0.8703492054117247  0.7156445028456176  0.1669367935379424  1.0000
  O   O30       1.0  0.37034920541172506  0.7843554971543831  0.6669367935379427  1.0000
  O   O31       1.0  0.12965079458827558  0.28435549715438246  0.8330632064620596  1.0000
  O   O32       1.0  0.6296507945882753  0.21564450284561723  0.33306320646205817  1.0000
  O   O33       1.0  0.5676493684745356  0.6631211044784381  0.0849469638920488  1.0000
  O   O34       1.0  0.06764936847453495  0.836878895521563  0.5849469638920496  1.0000
  O   O35       1.0  0.43235063152546555  0.33687889552156197  0.9150530361079535  1.0000
  O   O36       1.0  0.9323506315254668  0.16312110447843817  0.4150530361079518  1.0000
  O   O37       1.0  0.9447002885355861  0.3990102249445853  0.14704902098056571  1.0000
  O   O38       1.0  0.44470028853558435  0.10098977505541473  0.6470490209805665  1.0000
  O   O39       1.0  0.05529971146441545  0.6009897750554144  0.852950979019435  1.0000
  O   O40       1.0  0.5552997114644141  0.8990102249445852  0.35295097901943473  1.0000
  O   O41       1.0  0.675543262992034  0.47876148959707815  0.27346652510573294  1.0000
  O   O42       1.0  0.17554326299203357  0.021238510402921608  0.773466525105734  1.0000
  O   O43       1.0  0.3244567370079661  0.521238510402922  0.7265334748942681  1.0000
  O   O44       1.0  0.8244567370079667  0.9787614895970783  0.22653347489426787  1.0000
  O   O45       1.0  0.6263972851963868  0.350259002476286  0.06401734787897229  1.0000
  O   O46       1.0  0.12639728519638618  0.14974099752371417  0.564017347878973  1.0000
  O   O47       1.0  0.373602714803614  0.6497409975237141  0.9359826521210285  1.0000
  O   O48       1.0  0.8736027148036142  0.8502590024762858  0.4359826521210291  1.0000
