data_image0
_chemical_formula_structural       Li6Ti12P18O72
_chemical_formula_sum              "Li6 Ti12 P18 O72"
_cell_length_a       8.636274378803792
_cell_length_b       8.636274378803794
_cell_length_c       20.9572814236706
_cell_angle_alpha    90.0
_cell_angle_beta     90.0
_cell_angle_gamma    119.99999999999999

_space_group_name_H-M_alt    "P 1"
_space_group_IT_number       1

loop_
  _space_group_symop_operation_xyz
  'x, y, z'

loop_
  _atom_site_type_symbol
  _atom_site_label
  _atom_site_symmetry_multiplicity
  _atom_site_fract_x
  _atom_site_fract_y
  _atom_site_fract_z
  _atom_site_occupancy
  Li  Li1       1.0  0.0  0.9999999999999999  0.49999999999999994  1.0000
  Li  Li2       1.0  0.0  0.0  1.2764240762157537e-16  1.0000
  Li  Li3       1.0  0.6666666666666659  0.3333333333333332  0.8333333333333333  1.0000
  Li  Li4       1.0  0.666666666666666  0.3333333333333333  0.33333333333333326  1.0000
  Li  Li5       1.0  0.33333333333333326  0.6666666666666669  0.16666666666666666  1.0000
  Li  Li6       1.0  0.33333333333333315  0.6666666666666666  0.6666666666666663  1.0000
  Ti  Ti1       1.0  1.6918912450605734e-17  0.0  0.3589072653714457  1.0000
  Ti  Ti2       1.0  1.431950397627016e-16  0.9999999999999999  0.8589072653714446  1.0000
  Ti  Ti3       1.0  3.181622971016881e-17  4.6223328423868065e-17  0.6410927346285544  1.0000
  Ti  Ti4       1.0  0.0  0.0  0.14109273462855482  1.0000
  Ti  Ti5       1.0  0.6666666666666661  0.33333333333333326  0.6922405987047788  1.0000
  Ti  Ti6       1.0  0.6666666666666661  0.3333333333333333  0.19224059870477883  1.0000
  Ti  Ti7       1.0  0.666666666666666  0.3333333333333333  0.9744260679618885  1.0000
  Ti  Ti8       1.0  0.666666666666666  0.33333333333333326  0.4744260679618878  1.0000
  Ti  Ti9       1.0  0.33333333333333326  0.6666666666666669  0.02557393203811222  1.0000
  Ti  Ti10      1.0  0.33333333333333326  0.6666666666666666  0.5255739320381119  1.0000
  Ti  Ti11      1.0  0.33333333333333326  0.666666666666667  0.3077594012952212  1.0000
  Ti  Ti12      1.0  0.3333333333333332  0.6666666666666666  0.8077594012952224  1.0000
  P   P1        1.0  0.7093556467712565  0.7093556467712565  0.7499999999999997  1.0000
  P   P2        1.0  0.9999999999999992  0.2906443532287428  0.7499999999999997  1.0000
  P   P3        1.0  0.2906443532287431  0.0  0.7499999999999997  1.0000
  P   P4        1.0  0.709355646771257  0.0  0.2500000000000001  1.0000
  P   P5        1.0  0.29064435322874277  0.2906443532287429  0.2500000000000001  1.0000
  P   P6        1.0  0.9999999999999986  0.7093556467712567  0.2500000000000001  1.0000
  P   P7        1.0  0.3760223134379237  0.04268898010459049  0.08333333333333344  1.0000
  P   P8        1.0  0.6666666666666664  0.6239776865620763  0.08333333333333344  1.0000
  P   P9        1.0  0.957311019895408  0.3333333333333335  0.08333333333333344  1.0000
  P   P10       1.0  0.3760223134379236  0.33333333333333326  0.5833333333333335  1.0000
  P   P11       1.0  0.9573110198954085  0.6239776865620762  0.5833333333333334  1.0000
  P   P12       1.0  0.6666666666666655  0.042688980104590546  0.5833333333333335  1.0000
  P   P13       1.0  0.04268898010459003  0.3760223134379234  0.4166666666666667  1.0000
  P   P14       1.0  0.33333333333333304  0.9573110198954096  0.41666666666666696  1.0000
  P   P15       1.0  0.6239776865620761  0.6666666666666666  0.41666666666666696  1.0000
  P   P16       1.0  0.04268898010459006  0.6666666666666666  0.916666666666667  1.0000
  P   P17       1.0  0.6239776865620761  0.9573110198954096  0.9166666666666671  1.0000
  P   P18       1.0  0.3333333333333332  0.3760223134379234  0.916666666666667  1.0000
  O   O1        1.0  0.8137503365976355  0.8123466751175318  0.8100210418732319  1.0000
  O   O2        1.0  0.9985963385198937  0.1862496634023635  0.8100210418732319  1.0000
  O   O3        1.0  0.18765332488246797  0.0014036614801042132  0.8100210418732318  1.0000
  O   O4        1.0  0.8137503365976356  0.0014036614801042765  0.3100210418732319  1.0000
  O   O5        1.0  0.18765332488246786  0.18624966340236365  0.3100210418732319  1.0000
  O   O6        1.0  0.9985963385198958  0.8123466751175319  0.3100210418732318  1.0000
  O   O7        1.0  0.18624966340236337  0.187653324882468  0.18997895812676793  1.0000
  O   O8        1.0  0.001403661480104997  0.8137503365976371  0.18997895812676793  1.0000
  O   O9        1.0  0.8123466751175311  0.9985963385198955  0.18997895812676796  1.0000
  O   O10       1.0  0.18624966340236382  0.9985963385198954  0.6899789581267678  1.0000
  O   O11       1.0  0.8123466751175313  0.8137503365976368  0.6899789581267678  1.0000
  O   O12       1.0  0.0014036614801043962  0.1876533248824679  0.6899789581267679  1.0000
  O   O13       1.0  0.4804170032643026  0.1456800084508654  0.1433543752065655  1.0000
  O   O14       1.0  0.6652630051865615  0.5195829967356971  0.14335437520656552  1.0000
  O   O15       1.0  0.854319991549134  0.3347369948134377  0.1433543752065655  1.0000
  O   O16       1.0  0.4804170032643025  0.3347369948134376  0.6433543752065657  1.0000
  O   O17       1.0  0.8543199915491341  0.5195829967356971  0.6433543752065656  1.0000
  O   O18       1.0  0.6652630051865626  0.1456800084508653  0.6433543752065656  1.0000
  O   O19       1.0  0.8529163300690301  0.5209866582158007  0.5233122914601008  1.0000
  O   O20       1.0  0.6680703281467701  0.14708366993096966  0.5233122914601008  1.0000
  O   O21       1.0  0.4790133417841981  0.33192967185322864  0.5233122914601008  1.0000
  O   O22       1.0  0.8529163300690294  0.3319296718532286  0.023312291460101164  1.0000
  O   O23       1.0  0.47901334178419785  0.1470836699309694  0.023312291460101164  1.0000
  O   O24       1.0  0.6680703281467698  0.5209866582158007  0.023312291460101164  1.0000
  O   O25       1.0  0.14708366993096972  0.4790133417841985  0.47668770853989906  1.0000
  O   O26       1.0  0.3319296718532286  0.8529163300690298  0.47668770853989906  1.0000
  O   O27       1.0  0.5209866582158011  0.6680703281467708  0.47668770853989906  1.0000
  O   O28       1.0  0.14708366993096952  0.6680703281467709  0.9766877085398988  1.0000
  O   O29       1.0  0.5209866582158008  0.85291633006903  0.9766877085398988  1.0000
  O   O30       1.0  0.33192967185322864  0.4790133417841987  0.9766877085398987  1.0000
  O   O31       1.0  0.5195829967356965  0.8543199915491346  0.8566456247934352  1.0000
  O   O32       1.0  0.33473699481343705  0.4804170032643024  0.8566456247934352  1.0000
  O   O33       1.0  0.14568000845086512  0.665263005186562  0.8566456247934352  1.0000
  O   O34       1.0  0.5195829967356967  0.665263005186562  0.35664562479343465  1.0000
  O   O35       1.0  0.14568000845086498  0.4804170032643024  0.35664562479343465  1.0000
  O   O36       1.0  0.33473699481343755  0.8543199915491346  0.35664562479343465  1.0000
  O   O37       1.0  0.18851824598553943  0.1649402353773751  0.5798498626489065  1.0000
  O   O38       1.0  0.976421989391835  0.8114817540144602  0.5798498626489066  1.0000
  O   O39       1.0  0.8350597646226242  0.023578010608164484  0.5798498626489066  1.0000
  O   O40       1.0  0.18851824598553898  0.023578010608164574  0.0798498626489063  1.0000
  O   O41       1.0  0.8350597646226242  0.8114817540144603  0.0798498626489063  1.0000
  O   O42       1.0  0.9764219893918346  0.16494023537737512  0.0798498626489063  1.0000
  O   O43       1.0  0.8114817540144607  0.8350597646226255  0.42015013735109447  1.0000
  O   O44       1.0  0.023578010608164533  0.18851824598553948  0.42015013735109447  1.0000
  O   O45       1.0  0.16494023537737518  0.9764219893918348  0.42015013735109447  1.0000
  O   O46       1.0  0.8114817540144591  0.9764219893918348  0.9201501373510933  1.0000
  O   O47       1.0  0.16494023537737496  0.18851824598553937  0.9201501373510932  1.0000
  O   O48       1.0  0.023578010608164418  0.8350597646226254  0.9201501373510932  1.0000
  O   O49       1.0  0.8551849126522058  0.498273568710708  0.9131831959822402  1.0000
  O   O50       1.0  0.6430886560585017  0.1448150873477936  0.9131831959822402  1.0000
  O   O51       1.0  0.501726431289291  0.3569113439414979  0.9131831959822402  1.0000
  O   O52       1.0  0.8551849126522056  0.356911343941498  0.4131831959822395  1.0000
  O   O53       1.0  0.5017264312892913  0.14481508734779372  0.4131831959822395  1.0000
  O   O54       1.0  0.6430886560585017  0.49827356871070805  0.4131831959822395  1.0000
  O   O55       1.0  0.47814842068112734  0.16839309795595822  0.7534834706844274  1.0000
  O   O56       1.0  0.6902446772748305  0.5218515793188728  0.7534834706844274  1.0000
  O   O57       1.0  0.8316069020440411  0.30975532272516854  0.7534834706844274  1.0000
  O   O58       1.0  0.47814842068112634  0.30975532272516865  0.2534834706844276  1.0000
  O   O59       1.0  0.8316069020440414  0.5218515793188729  0.2534834706844276  1.0000
  O   O60       1.0  0.690244677274831  0.16839309795595828  0.2534834706844276  1.0000
  O   O61       1.0  0.5218515793188723  0.8316069020440411  0.24651652931557266  1.0000
  O   O62       1.0  0.30975532272516865  0.4781484206811272  0.24651652931557266  1.0000
  O   O63       1.0  0.16839309795595855  0.6902446772748311  0.24651652931557264  1.0000
  O   O64       1.0  0.5218515793188722  0.690244677274831  0.7465165293155731  1.0000
  O   O65       1.0  0.16839309795595836  0.4781484206811272  0.746516529315573  1.0000
  O   O66       1.0  0.3097553227251682  0.831606902044041  0.746516529315573  1.0000
  O   O67       1.0  0.14481508734779378  0.5017264312892918  0.08681680401776062  1.0000
  O   O68       1.0  0.35691134394149715  0.8551849126522052  0.08681680401776064  1.0000
  O   O69       1.0  0.49827356871070755  0.6430886560585017  0.08681680401776065  1.0000
  O   O70       1.0  0.14481508734779394  0.6430886560585016  0.5868168040177606  1.0000
  O   O71       1.0  0.49827356871070755  0.8551849126522051  0.5868168040177606  1.0000
  O   O72       1.0  0.3569113439414977  0.5017264312892916  0.5868168040177606  1.0000
