data_image0
_chemical_formula_structural       Fe12V24O84Li20
_chemical_formula_sum              "Fe12 V24 O84 Li20"
_cell_length_a       13.882403048063864
_cell_length_b       8.380896156938633
_cell_length_c       14.411201418755574
_cell_angle_alpha    90.0
_cell_angle_beta     95.87387896072148
_cell_angle_gamma    90.0

_space_group_name_H-M_alt    "P 1"
_space_group_IT_number       1

loop_
  _space_group_symop_operation_xyz
  'x, y, z'

loop_
  _atom_site_type_symbol
  _atom_site_label
  _atom_site_symmetry_multiplicity
  _atom_site_fract_x
  _atom_site_fract_y
  _atom_site_fract_z
  _atom_site_occupancy
  Fe  Fe1       1.0  0.498678453875938  0.810450188956429  0.37340344254017166  1.0000
  Fe  Fe2       1.0  0.49867845387593845  0.18954981104357035  0.8734034425401727  1.0000
  Fe  Fe3       1.0  0.9986784538759373  0.3104501889564302  0.3734034425401714  1.0000
  Fe  Fe4       1.0  0.9986784538759381  0.6895498110435706  0.8734034425401717  1.0000
  Fe  Fe5       1.0  0.8444353605068056  0.807366241025698  0.5383239702573757  1.0000
  Fe  Fe6       1.0  0.8444353605068066  0.19263375897430215  0.03832397025737539  1.0000
  Fe  Fe7       1.0  0.344435360506806  0.3073662410256981  0.5383239702573756  1.0000
  Fe  Fe8       1.0  0.34443536050680557  0.6926337589743015  0.03832397025737537  1.0000
  Fe  Fe9       1.0  0.7179744953862839  0.3157820027322926  0.7131536306981013  1.0000
  Fe  Fe10      1.0  0.7179744953862837  0.6842179972677069  0.21315363069810186  1.0000
  Fe  Fe11      1.0  0.21797449538628372  0.8157820027322933  0.7131536306981017  1.0000
  Fe  Fe12      1.0  0.21797449538628363  0.1842179972677075  0.21315363069810184  1.0000
  V   V1        1.0  0.438301737134542  0.045101927340510786  0.17022018459992638  1.0000
  V   V2        1.0  0.43830173713454196  0.9548980726594896  0.6702201845999267  1.0000
  V   V3        1.0  0.9383017371345427  0.545101927340511  0.1702201845999264  1.0000
  V   V4        1.0  0.9383017371345418  0.45489807265948995  0.670220184599927  1.0000
  V   V5        1.0  0.6942164943366103  0.9623061744188514  0.35468070122095885  1.0000
  V   V6        1.0  0.69421649433661  0.03769382558114729  0.854680701220959  1.0000
  V   V7        1.0  0.19421649433660992  0.4623061744188529  0.35468070122095907  1.0000
  V   V8        1.0  0.19421649433660976  0.5376938255811473  0.8546807012209591  1.0000
  V   V9        1.0  0.5699398519736285  0.4597024290038832  0.5101217376347641  1.0000
  V   V10       1.0  0.5699398519736281  0.5402975709961172  0.010121737634763739  1.0000
  V   V11       1.0  0.0699398519736281  0.9597024290038825  0.5101217376347642  1.0000
  V   V12       1.0  0.06993985197362805  0.040297570996117076  0.010121737634763739  1.0000
  V   V13       1.0  0.6525596580169081  0.9613332538631126  0.5623185174298934  1.0000
  V   V14       1.0  0.6525596580169085  0.038666746136888384  0.0623185174298942  1.0000
  V   V15       1.0  0.15255965801690807  0.4613332538631118  0.5623185174298939  1.0000
  V   V16       1.0  0.15255965801690793  0.5386667461368884  0.06231851742989417  1.0000
  V   V17       1.0  0.2740822282754758  0.961609000192523  0.4014984574274533  1.0000
  V   V18       1.0  0.27408222827547596  0.03839099980747673  0.9014984574274534  1.0000
  V   V19       1.0  0.7740822282754759  0.4616090001925236  0.4014984574274533  1.0000
  V   V20       1.0  0.7740822282754763  0.5383909998074783  0.9014984574274534  1.0000
  V   V21       1.0  0.40590051752929934  0.4647473350553857  0.2408253634771157  1.0000
  V   V22       1.0  0.4059005175292988  0.5352526649446139  0.7408253634771159  1.0000
  V   V23       1.0  0.9059005175292991  0.964747335055385  0.2408253634771157  1.0000
  V   V24       1.0  0.9059005175292983  0.03525266494461449  0.7408253634771155  1.0000
  O   O1        1.0  0.4735199691578318  0.33021817975534956  0.48050236746662967  1.0000
  O   O2        1.0  0.4735199691578318  0.6697818202446506  0.9805023674666303  1.0000
  O   O3        1.0  0.9735199691578316  0.8302181797553496  0.48050236746662944  1.0000
  O   O4        1.0  0.9735199691578322  0.16978182024465047  0.9805023674666297  1.0000
  O   O5        1.0  0.33871026098173157  0.1672727148090827  0.14270189267078265  1.0000
  O   O6        1.0  0.3387102609817318  0.8327272851909165  0.6427018926707821  1.0000
  O   O7        1.0  0.8387102609817325  0.6672727148090826  0.1427018926707826  1.0000
  O   O8        1.0  0.8387102609817327  0.332727285190917  0.6427018926707826  1.0000
  O   O9        1.0  0.24564852774018558  0.9661396521160333  0.2816344236079661  1.0000
  O   O10       1.0  0.24564852774018536  0.03386034788396653  0.7816344236079652  1.0000
  O   O11       1.0  0.745648527740184  0.4661396521160341  0.2816344236079659  1.0000
  O   O12       1.0  0.7456485277401849  0.533860347883967  0.7816344236079653  1.0000
  O   O13       1.0  0.39083908061207007  0.49632151345371345  0.12069354878086534  1.0000
  O   O14       1.0  0.39083908061206973  0.5036784865462866  0.6206935487808654  1.0000
  O   O15       1.0  0.8908390806120707  0.9963215134537127  0.12069354878086536  1.0000
  O   O16       1.0  0.8908390806120703  0.0036784865462863056  0.6206935487808656  1.0000
  O   O17       1.0  0.42872258956391807  0.6593494039641354  0.28282202281225705  1.0000
  O   O18       1.0  0.4287225895639185  0.34065059603586445  0.7828220228122572  1.0000
  O   O19       1.0  0.9287225895639176  0.1593494039641356  0.28282202281225677  1.0000
  O   O20       1.0  0.9287225895639185  0.840650596035865  0.7828220228122579  1.0000
  O   O21       1.0  0.2976721547058362  0.1505745740490651  0.4405168071709074  1.0000
  O   O22       1.0  0.2976721547058362  0.8494254259509351  0.9405168071709076  1.0000
  O   O23       1.0  0.7976721547058356  0.6505745740490649  0.44051680717090747  1.0000
  O   O24       1.0  0.7976721547058356  0.3494254259509351  0.9405168071709078  1.0000
  O   O25       1.0  0.5408283557505875  0.8801280006754079  0.6234319576611094  1.0000
  O   O26       1.0  0.5408283557505874  0.11987199932459205  0.12343195766110908  1.0000
  O   O27       1.0  0.040828355750586916  0.3801280006754082  0.623431957661109  1.0000
  O   O28       1.0  0.04082835575058692  0.6198719993245922  0.12343195766110898  1.0000
  O   O29       1.0  0.620255398463135  0.7957429378281187  0.29887966268017996  1.0000
  O   O30       1.0  0.6202553984631327  0.20425706217188114  0.7988796626801803  1.0000
  O   O31       1.0  0.1202553984631327  0.2957429378281192  0.29887966268018035  1.0000
  O   O32       1.0  0.1202553984631327  0.7042570621718814  0.7988796626801804  1.0000
  O   O33       1.0  0.5859048732556043  0.9749703885516928  0.43582600293705037  1.0000
  O   O34       1.0  0.5859048732556034  0.025029611448308214  0.9358260029370491  1.0000
  O   O35       1.0  0.08590487325560331  0.4749703885516918  0.4358260029370497  1.0000
  O   O36       1.0  0.08590487325560334  0.5250296114483081  0.93582600293705  1.0000
  O   O37       1.0  0.6771789987147611  0.13905932834362109  0.30463986103323626  1.0000
  O   O38       1.0  0.6771789987147608  0.8609406716563789  0.8046398610332355  1.0000
  O   O39       1.0  0.17717899871476192  0.6390593283436217  0.3046398610332366  1.0000
  O   O40       1.0  0.17717899871476173  0.3609406716563789  0.8046398610332358  1.0000
  O   O41       1.0  0.6575193265351367  0.1452396133364677  0.6117733794684436  1.0000
  O   O42       1.0  0.6575193265351365  0.8547603866635323  0.11177337946844347  1.0000
  O   O43       1.0  0.15751932653513503  0.6452396133364674  0.6117733794684433  1.0000
  O   O44       1.0  0.1575193265351351  0.3547603866635324  0.1117733794684434  1.0000
  O   O45       1.0  0.6716774027505152  0.3843870040575911  0.45425494701885716  1.0000
  O   O46       1.0  0.6716774027505138  0.6156129959424099  0.954254947018858  1.0000
  O   O47       1.0  0.17167740275051377  0.8843870040575909  0.4542549470188576  1.0000
  O   O48       1.0  0.1716774027505139  0.11561299594240933  0.9542549470188579  1.0000
  O   O49       1.0  0.29937370548691034  0.390333303932599  0.28948366492534655  1.0000
  O   O50       1.0  0.2993737054869106  0.6096666960674009  0.7894836649253466  1.0000
  O   O51       1.0  0.7993737054869123  0.8903333039325992  0.2894836649253465  1.0000
  O   O52       1.0  0.7993737054869111  0.10966669606740113  0.7894836649253467  1.0000
  O   O53       1.0  0.5019638622585167  0.34572381845757444  0.271949756025645  1.0000
  O   O54       1.0  0.5019638622585166  0.6542761815424256  0.7719497560256446  1.0000
  O   O55       1.0  0.0019638622585167994  0.8457238184575742  0.2719497560256449  1.0000
  O   O56       1.0  0.0019638622585166875  0.15427618154242564  0.7719497560256435  1.0000
  O   O57       1.0  0.45720151726195396  0.005401461156897805  0.2895777884017035  1.0000
  O   O58       1.0  0.45720151726195374  0.9945985388431042  0.7895777884017036  1.0000
  O   O59       1.0  0.9572015172619541  0.5054014611568979  0.2895777884017031  1.0000
  O   O60       1.0  0.9572015172619553  0.49459853884310195  0.7895777884017036  1.0000
  O   O61       1.0  0.5427661932511861  0.6476887564516441  0.46931157705578247  1.0000
  O   O62       1.0  0.5427661932511866  0.35231124354835586  0.9693115770557827  1.0000
  O   O63       1.0  0.042766193251186364  0.14768875645164442  0.46931157705578225  1.0000
  O   O64       1.0  0.04276619325118643  0.8523112435483561  0.969311577055783  1.0000
  O   O65       1.0  0.41323189264536586  0.8535213839666778  0.12496625527952651  1.0000
  O   O66       1.0  0.4132318926453655  0.14647861603332132  0.6249662552795279  1.0000
  O   O67       1.0  0.9132318926453661  0.3535213839666793  0.12496625527952647  1.0000
  O   O68       1.0  0.9132318926453658  0.6464786160333215  0.6249662552795269  1.0000
  O   O69       1.0  0.764639638950527  0.9842823405120309  0.4700522271879535  1.0000
  O   O70       1.0  0.7646396389505272  0.01571765948796973  0.9700522271879534  1.0000
  O   O71       1.0  0.26463963895052584  0.4842823405120302  0.4700522271879532  1.0000
  O   O72       1.0  0.26463963895052584  0.5157176594879698  0.9700522271879537  1.0000
  O   O73       1.0  0.6027601782404115  0.4596962662971984  0.62921917139949  1.0000
  O   O74       1.0  0.6027601782404115  0.5403037337028024  0.12921917139948982  1.0000
  O   O75       1.0  0.10276017824041188  0.9596962662971975  0.6292191713994904  1.0000
  O   O76       1.0  0.10276017824041181  0.04030373370280227  0.1292191713994897  1.0000
  O   O77       1.0  0.3724812098968225  0.8368692251549106  0.43330372499687736  1.0000
  O   O78       1.0  0.3724812098968226  0.16313077484508967  0.9333037249968775  1.0000
  O   O79       1.0  0.8724812098968221  0.3368692251549108  0.4333037249968774  1.0000
  O   O80       1.0  0.8724812098968229  0.6631307748450889  0.9333037249968776  1.0000
  O   O81       1.0  0.7303551440058973  0.7950205199659556  0.6111508782574991  1.0000
  O   O82       1.0  0.7303551440058964  0.2049794800340447  0.11115087825749832  1.0000
  O   O83       1.0  0.2303551440058968  0.2950205199659559  0.6111508782574988  1.0000
  O   O84       1.0  0.2303551440058966  0.7049794800340446  0.11115087825749832  1.0000
  Li  Li1       1.0  0.6140733229104662  0.6873625718917742  0.6929974177042717  1.0000
  Li  Li2       1.0  0.6140733229104661  0.3126374281082258  0.1929974177042715  1.0000
  Li  Li3       1.0  0.11407332291046653  0.18736257189177455  0.6929974177042716  1.0000
  Li  Li4       1.0  0.11407332291046643  0.8126374281082253  0.1929974177042716  1.0000
  Li  Li5       1.0  0.33792818334711033  0.3195235104861059  0.03376519171272038  1.0000
  Li  Li6       1.0  0.3379281833471108  0.6804764895138942  0.5337651917127209  1.0000
  Li  Li7       1.0  0.8379281833471104  0.8195235104861055  0.0337651917127204  1.0000
  Li  Li8       1.0  0.8379281833471104  0.18047648951389475  0.5337651917127206  1.0000
  Li  Li9       1.0  0.5175018975694022  0.18131069480796164  0.3752491717336192  1.0000
  Li  Li10      1.0  0.5175018975694025  0.8186893051920386  0.8752491717336186  1.0000
  Li  Li11      1.0  0.017501897569401858  0.6813106948079614  0.37524917173361844  1.0000
  Li  Li12      1.0  0.017501897569401778  0.31868930519203853  0.8752491717336179  1.0000
  Li  Li13      1.0  0.3070399484300818  0.7801176038916933  0.22443019356867658  1.0000
  Li  Li14      1.0  0.30703994843008187  0.21988239610830687  0.7244301935686768  1.0000
  Li  Li15      1.0  0.8070399484300813  0.28011760389169343  0.22443019356867647  1.0000
  Li  Li16      1.0  0.8070399484300819  0.7198823961083068  0.7244301935686774  1.0000
  Li  Li17      1.0  0.03329957037742987  0.23794128140560544  0.17566210306531557  1.0000
  Li  Li18      1.0  0.03329957037742988  0.7620587185943946  0.6756621030653159  1.0000
  Li  Li19      1.0  0.5332995703774304  0.7379412814056042  0.17566210306531554  1.0000
  Li  Li20      1.0  0.5332995703774299  0.262058718594395  0.6756621030653153  1.0000
