data_image0
_chemical_formula_structural       P18O72Li6Ge12
_chemical_formula_sum              "P18 O72 Li6 Ge12"
_cell_length_a       8.399711949321421
_cell_length_b       8.399711949321423
_cell_length_c       20.68588564613144
_cell_angle_alpha    90.0
_cell_angle_beta     90.0
_cell_angle_gamma    119.99999999999999

_space_group_name_H-M_alt    "P 1"
_space_group_IT_number       1

loop_
  _space_group_symop_operation_xyz
  'x, y, z'

loop_
  _atom_site_type_symbol
  _atom_site_label
  _atom_site_symmetry_multiplicity
  _atom_site_fract_x
  _atom_site_fract_y
  _atom_site_fract_z
  _atom_site_occupancy
  P   P1        1.0  0.2884749162704746  4.961311634712364e-30  0.24999999999999992  1.0000
  P   P2        1.0  0.7115250837295259  0.7115250837295258  0.24999999999999994  1.0000
  P   P3        1.0  4.2775069075388566e-17  0.28847491627047467  0.24999999999999992  1.0000
  P   P4        1.0  0.2884749162704748  0.2884749162704745  0.7499999999999997  1.0000
  P   P5        1.0  5.189594175430656e-16  0.7115250837295256  0.7499999999999997  1.0000
  P   P6        1.0  0.7115250837295252  2.7517657427503006e-30  0.7499999999999997  1.0000
  P   P7        1.0  0.9551415829371407  0.3333333333333334  0.5833333333333327  1.0000
  P   P8        1.0  0.3781917503961919  0.044858417062858695  0.5833333333333327  1.0000
  P   P9        1.0  0.6666666666666674  0.6218082496038085  0.5833333333333327  1.0000
  P   P10       1.0  0.9551415829371422  0.6218082496038085  0.0833333333333333  1.0000
  P   P11       1.0  0.6666666666666674  0.04485841706285863  0.08333333333333329  1.0000
  P   P12       1.0  0.37819175039619224  0.3333333333333335  0.0833333333333333  1.0000
  P   P13       1.0  0.6218082496038086  0.6666666666666669  0.916666666666666  1.0000
  P   P14       1.0  0.04485841706285868  0.3781917503961919  0.916666666666666  1.0000
  P   P15       1.0  0.33333333333333376  0.9551415829371416  0.916666666666666  1.0000
  P   P16       1.0  0.6218082496038085  0.9551415829371416  0.4166666666666666  1.0000
  P   P17       1.0  0.3333333333333335  0.3781917503961919  0.4166666666666666  1.0000
  P   P18       1.0  0.04485841706285899  0.666666666666667  0.4166666666666666  1.0000
  O   O1        1.0  0.19586604486197542  0.01332200074052855  0.31196064133281737  1.0000
  O   O2        1.0  0.8174559558785532  0.8041339551380244  0.31196064133281737  1.0000
  O   O3        1.0  0.9866779992594709  0.18254404412144726  0.31196064133281737  1.0000
  O   O4        1.0  0.1958660448619757  0.18254404412144717  0.8119606413328153  1.0000
  O   O5        1.0  0.9866779992594706  0.8041339551380243  0.8119606413328153  1.0000
  O   O6        1.0  0.8174559558785532  0.01332200074052853  0.8119606413328153  1.0000
  O   O7        1.0  0.8041339551380251  0.9866779992594716  0.6880393586671817  1.0000
  O   O8        1.0  0.1825440441214468  0.19586604486197537  0.6880393586671816  1.0000
  O   O9        1.0  0.013322000740528878  0.8174559558785526  0.6880393586671816  1.0000
  O   O10       1.0  0.8041339551380247  0.8174559558785527  0.18803935866718285  1.0000
  O   O11       1.0  0.013322000740528422  0.1958660448619755  0.18803935866718283  1.0000
  O   O12       1.0  0.18254404412144723  0.9866779992594717  0.18803935866718283  1.0000
  O   O13       1.0  0.8625327115286426  0.3466553340738622  0.6452939746661509  1.0000
  O   O14       1.0  0.48412262254521937  0.13746728847135775  0.6452939746661509  1.0000
  O   O15       1.0  0.6533446659261378  0.5158773774547802  0.6452939746661509  1.0000
  O   O16       1.0  0.8625327115286425  0.5158773774547802  0.14529397466615054  1.0000
  O   O17       1.0  0.6533446659261374  0.13746728847135778  0.1452939746661506  1.0000
  O   O18       1.0  0.48412262254521987  0.34665533407386223  0.14529397466615057  1.0000
  O   O19       1.0  0.47080062180469096  0.32001133259280423  0.021372692000516145  1.0000
  O   O20       1.0  0.8492107107881127  0.5291993781953085  0.021372692000516155  1.0000
  O   O21       1.0  0.6799886674071958  0.15078928921188656  0.021372692000516145  1.0000
  O   O22       1.0  0.4708006218046911  0.1507892892118865  0.5213726920005156  1.0000
  O   O23       1.0  0.6799886674071954  0.5291993781953085  0.5213726920005156  1.0000
  O   O24       1.0  0.8492107107881137  0.32001133259280423  0.5213726920005156  1.0000
  O   O25       1.0  0.5291993781953092  0.6799886674071955  0.9786273079994825  1.0000
  O   O26       1.0  0.15078928921188645  0.4708006218046914  0.9786273079994825  1.0000
  O   O27       1.0  0.3200113325928055  0.8492107107881146  0.9786273079994825  1.0000
  O   O28       1.0  0.5291993781953097  0.8492107107881146  0.47862730799948416  1.0000
  O   O29       1.0  0.320011332592805  0.47080062180469145  0.47862730799948416  1.0000
  O   O30       1.0  0.1507892892118866  0.6799886674071955  0.47862730799948416  1.0000
  O   O31       1.0  0.13746728847135792  0.6533446659261382  0.35470602533384915  1.0000
  O   O32       1.0  0.5158773774547804  0.8625327115286421  0.35470602533384915  1.0000
  O   O33       1.0  0.3466553340738622  0.4841226225452199  0.35470602533384915  1.0000
  O   O34       1.0  0.1374672884713581  0.48412262254521987  0.8547060253338504  1.0000
  O   O35       1.0  0.346655334073862  0.8625327115286421  0.8547060253338504  1.0000
  O   O36       1.0  0.5158773774547804  0.653344665926138  0.8547060253338504  1.0000
  O   O37       1.0  0.024630963574505806  0.8403473810184839  0.4186514245722015  1.0000
  O   O38       1.0  0.8157164174439787  0.9753690364254943  0.4186514245722015  1.0000
  O   O39       1.0  0.1596526189815163  0.18428358255602184  0.4186514245722015  1.0000
  O   O40       1.0  0.024630963574505494  0.18428358255602179  0.918651424572202  1.0000
  O   O41       1.0  0.1596526189815162  0.975369036425494  0.918651424572202  1.0000
  O   O42       1.0  0.8157164174439788  0.8403473810184837  0.918651424572202  1.0000
  O   O43       1.0  0.9753690364254936  0.15965261898151634  0.5813485754277977  1.0000
  O   O44       1.0  0.18428358255602148  0.024630963574505473  0.5813485754277977  1.0000
  O   O45       1.0  0.8403473810184848  0.8157164174439789  0.5813485754277977  1.0000
  O   O46       1.0  0.9753690364254951  0.8157164174439792  0.08134857542779768  1.0000
  O   O47       1.0  0.8403473810184838  0.02463096357450551  0.08134857542779768  1.0000
  O   O48       1.0  0.18428358255602173  0.15965261898151642  0.08134857542779768  1.0000
  O   O49       1.0  0.6912976302411726  0.17368071435181717  0.7519847579055347  1.0000
  O   O50       1.0  0.482383084110645  0.3087023697588279  0.7519847579055347  1.0000
  O   O51       1.0  0.8263192856481831  0.5176169158893552  0.7519847579055347  1.0000
  O   O52       1.0  0.6912976302411723  0.5176169158893552  0.2519847579055357  1.0000
  O   O53       1.0  0.826319285648182  0.30870236975882787  0.2519847579055357  1.0000
  O   O54       1.0  0.482383084110645  0.1736807143518171  0.2519847579055357  1.0000
  O   O55       1.0  0.6420357030921613  0.4929859523148498  0.9146819087611294  1.0000
  O   O56       1.0  0.8509502492226878  0.35796429690783926  0.9146819087611294  1.0000
  O   O57       1.0  0.5070140476851505  0.1490497507773113  0.9146819087611294  1.0000
  O   O58       1.0  0.6420357030921612  0.14904975077731145  0.4146819087611311  1.0000
  O   O59       1.0  0.5070140476851505  0.3579642969078394  0.4146819087611311  1.0000
  O   O60       1.0  0.850950249222689  0.4929859523148499  0.4146819087611311  1.0000
  O   O61       1.0  0.35796429690783865  0.50701404768515  0.08531809123886905  1.0000
  O   O62       1.0  0.1490497507773117  0.6420357030921611  0.08531809123886905  1.0000
  O   O63       1.0  0.4929859523148498  0.8509502492226885  0.08531809123886905  1.0000
  O   O64       1.0  0.35796429690783904  0.8509502492226884  0.5853180912388686  1.0000
  O   O65       1.0  0.49298595231484943  0.6420357030921608  0.5853180912388686  1.0000
  O   O66       1.0  0.14904975077731156  0.5070140476851499  0.5853180912388686  1.0000
  O   O67       1.0  0.30870236975882814  0.8263192856481829  0.24801524209446424  1.0000
  O   O68       1.0  0.5176169158893551  0.6912976302411723  0.24801524209446418  1.0000
  O   O69       1.0  0.1736807143518169  0.4823830841106447  0.24801524209446418  1.0000
  O   O70       1.0  0.3087023697588278  0.4823830841106447  0.7480152420944641  1.0000
  O   O71       1.0  0.17368071435181714  0.6912976302411722  0.7480152420944641  1.0000
  O   O72       1.0  0.5176169158893552  0.8263192856481828  0.7480152420944641  1.0000
  Li  Li1       1.0  0.9999999999999999  1.6402150486344156e-30  0.4999999999999997  1.0000
  Li  Li2       1.0  0.9999999999999999  5.5511151231256483e-17  4.3399449783052066e-17  1.0000
  Li  Li3       1.0  0.6666666666666666  0.33333333333333337  0.8333333333333329  1.0000
  Li  Li4       1.0  0.6666666666666665  0.3333333333333335  0.33333333333333304  1.0000
  Li  Li5       1.0  0.3333333333333333  0.666666666666667  0.16666666666666655  1.0000
  Li  Li6       1.0  0.3333333333333333  0.6666666666666669  0.6666666666666661  1.0000
  Ge  Ge1       1.0  0.9999999999999999  0.0  0.3590195990744138  1.0000
  Ge  Ge2       1.0  0.0  1.7893255076011806e-30  0.8590195990744139  1.0000
  Ge  Ge3       1.0  0.9999999999999999  1.2400325725305136e-16  0.6409804009255863  1.0000
  Ge  Ge4       1.0  0.9999999999999999  0.0  0.14098040092558617  1.0000
  Ge  Ge5       1.0  0.6666666666666666  0.33333333333333337  0.6923529324077464  1.0000
  Ge  Ge6       1.0  0.6666666666666666  0.3333333333333335  0.19235293240774698  1.0000
  Ge  Ge7       1.0  0.6666666666666666  0.3333333333333335  0.9743137342589183  1.0000
  Ge  Ge8       1.0  0.6666666666666666  0.3333333333333334  0.47431373425891976  1.0000
  Ge  Ge9       1.0  0.33333333333333337  0.666666666666667  0.025686265741080502  1.0000
  Ge  Ge10      1.0  0.33333333333333337  0.6666666666666669  0.5256862657410797  1.0000
  Ge  Ge11      1.0  0.3333333333333334  0.6666666666666672  0.30764706759225274  1.0000
  Ge  Ge12      1.0  0.33333333333333337  0.6666666666666669  0.8076470675922529  1.0000
