data_image0
_chemical_formula_structural       Fe12V24O84Li12
_chemical_formula_sum              "Fe12 V24 O84 Li12"
_cell_length_a       14.702408905257432
_cell_length_b       8.969307801108256
_cell_length_c       17.673565497852348
_cell_angle_alpha    89.99999999999999
_cell_angle_beta     115.16187920472944
_cell_angle_gamma    89.99999999999999

_space_group_name_H-M_alt    "P 1"
_space_group_IT_number       1

loop_
  _space_group_symop_operation_xyz
  'x, y, z'

loop_
  _atom_site_type_symbol
  _atom_site_label
  _atom_site_symmetry_multiplicity
  _atom_site_fract_x
  _atom_site_fract_y
  _atom_site_fract_z
  _atom_site_occupancy
  Fe  Fe1       1.0  0.3680024249467989  0.9845160911110596  0.32301715319082536  1.0000
  Fe  Fe2       1.0  0.36800242494679786  0.015483908888940466  0.8230171531908246  1.0000
  Fe  Fe3       1.0  0.8680024249467977  0.484516091111059  0.32301715319082575  1.0000
  Fe  Fe4       1.0  0.8680024249467988  0.5154839088889398  0.8230171531908249  1.0000
  Fe  Fe5       1.0  0.5137150597130838  0.6307844756058564  0.3471093987692182  1.0000
  Fe  Fe6       1.0  0.5137150597130842  0.369215524394143  0.8471093987692189  1.0000
  Fe  Fe7       1.0  0.013715059713083635  0.13078447560585735  0.34710939876921765  1.0000
  Fe  Fe8       1.0  0.013715059713084263  0.8692155243941411  0.8471093987692192  1.0000
  Fe  Fe9       1.0  0.7005403583398674  0.3030729111947067  0.7745323765734349  1.0000
  Fe  Fe10      1.0  0.7005403583398693  0.6969270888052916  0.27453237657343565  1.0000
  Fe  Fe11      1.0  0.20054035833986925  0.8030729111947075  0.7745323765734353  1.0000
  Fe  Fe12      1.0  0.20054035833986916  0.19692708880529322  0.2745323765734353  1.0000
  V   V1        1.0  0.5591635898702555  0.03397191943411141  0.39210264307462994  1.0000
  V   V2        1.0  0.5591635898702563  0.966028080565886  0.8921026430746308  1.0000
  V   V3        1.0  0.05916358987025605  0.5339719194341112  0.3921026430746301  1.0000
  V   V4        1.0  0.05916358987025516  0.4660280805658883  0.892102643074629  1.0000
  V   V5        1.0  0.931633216524266  0.6819089614051589  0.07952596776309644  1.0000
  V   V6        1.0  0.931633216524267  0.3180910385948395  0.5795259677630955  1.0000
  V   V7        1.0  0.4316332165242673  0.18190896140516136  0.0795259677630967  1.0000
  V   V8        1.0  0.431633216524267  0.8180910385948391  0.5795259677630947  1.0000
  V   V9        1.0  0.8397960461609382  0.4965736893233487  0.6434960576989885  1.0000
  V   V10       1.0  0.83979604616094  0.5034263106766502  0.14349605769899004  1.0000
  V   V11       1.0  0.3397960461609399  0.9965736893233469  0.64349605769899  1.0000
  V   V12       1.0  0.33979604616093995  0.0034263106766510665  0.14349605769899007  1.0000
  V   V13       1.0  0.6276054440061996  0.8508178682221277  0.7755708341663883  1.0000
  V   V14       1.0  0.6276054440062003  0.14918213177787307  0.2755708341663903  1.0000
  V   V15       1.0  0.12760544400620083  0.3508178682221282  0.7755708341663885  1.0000
  V   V16       1.0  0.12760544400620155  0.6491821317778715  0.2755708341663904  1.0000
  V   V17       1.0  0.2860382111005289  0.18877688115569757  0.44271356596648287  1.0000
  V   V18       1.0  0.2860382111005282  0.811223118844302  0.9427135659664805  1.0000
  V   V19       1.0  0.7860382111005274  0.6887768811556984  0.4427135659664828  1.0000
  V   V20       1.0  0.7860382111005272  0.311223118844301  0.9427135659664806  1.0000
  V   V21       1.0  0.5077983195696641  0.5406884989472388  0.21946232171764252  1.0000
  V   V22       1.0  0.5077983195696639  0.459311501052762  0.7194623217176415  1.0000
  V   V23       1.0  0.00779831956966337  0.04068849894723692  0.21946232171764277  1.0000
  V   V24       1.0  0.00779831956966226  0.9593115010527611  0.7194623217176404  1.0000
  O   O1        1.0  0.13583867888538914  0.42728955384786943  0.257641105406777  1.0000
  O   O2        1.0  0.13583867888539017  0.5727104461521293  0.757641105406779  1.0000
  O   O3        1.0  0.6358386788853879  0.9272895538478686  0.2576411054067774  1.0000
  O   O4        1.0  0.6358386788853885  0.07271044615212952  0.7576411054067769  1.0000
  O   O5        1.0  0.320724803308338  0.1294073715080105  0.24780676157223358  1.0000
  O   O6        1.0  0.32072480330833825  0.8705926284919919  0.7478067615722332  1.0000
  O   O7        1.0  0.8207248033083375  0.6294073715080097  0.24780676157223352  1.0000
  O   O8        1.0  0.8207248033083362  0.3705926284919906  0.7478067615722326  1.0000
  O   O9        1.0  0.5130627078215807  0.6148652160786454  0.6279269001185649  1.0000
  O   O10       1.0  0.5130627078215801  0.3851347839213534  0.1279269001185641  1.0000
  O   O11       1.0  0.013062707821578146  0.11486521607864607  0.6279269001185648  1.0000
  O   O12       1.0  0.013062707821579922  0.8851347839213538  0.12792690011856322  1.0000
  O   O13       1.0  0.5955796120648371  0.4590121015182597  0.15950275124996804  1.0000
  O   O14       1.0  0.5955796120648371  0.5409878984817399  0.6595027512499672  1.0000
  O   O15       1.0  0.09557961206483712  0.9590121015182621  0.15950275124996816  1.0000
  O   O16       1.0  0.09557961206483445  0.04098789848174069  0.6595027512499683  1.0000
  O   O17       1.0  0.14421342177201732  0.17863114988146922  0.1435070860199688  1.0000
  O   O18       1.0  0.14421342177201577  0.8213688501185303  0.6435070860199675  1.0000
  O   O19       1.0  0.6442134217720169  0.6786311498814687  0.14350708601996892  1.0000
  O   O20       1.0  0.644213421772017  0.3213688501185317  0.6435070860199678  1.0000
  O   O21       1.0  0.008988578712859317  0.6316775412687144  0.4454549150680911  1.0000
  O   O22       1.0  0.008988578712858002  0.36832245873128544  0.9454549150680873  1.0000
  O   O23       1.0  0.5089885787128589  0.13167754126871317  0.44545491506809026  1.0000
  O   O24       1.0  0.5089885787128572  0.8683224587312871  0.9454549150680891  1.0000
  O   O25       1.0  0.804127498113464  0.8797571132435968  0.46903374759260114  1.0000
  O   O26       1.0  0.8041274981134626  0.12024288675640105  0.9690337475926027  1.0000
  O   O27       1.0  0.3041274981134632  0.3797571132436  0.46903374759260197  1.0000
  O   O28       1.0  0.30412749811346296  0.6202428867564007  0.9690337475926019  1.0000
  O   O29       1.0  0.7872350583815207  0.7107996203013174  0.09596488732263704  1.0000
  O   O30       1.0  0.7872350583815226  0.2892003796986833  0.5959648873226353  1.0000
  O   O31       1.0  0.28723505838152286  0.2107996203013167  0.09596488732263708  1.0000
  O   O32       1.0  0.28723505838152297  0.7892003796986828  0.5959648873226361  1.0000
  O   O33       1.0  0.6243003972068835  0.6969180515660424  0.8141267896584277  1.0000
  O   O34       1.0  0.6243003972068837  0.3030819484339579  0.314126789658429  1.0000
  O   O35       1.0  0.12430039720688418  0.19691805156604214  0.8141267896584273  1.0000
  O   O36       1.0  0.1243003972068849  0.8030819484339562  0.3141267896584299  1.0000
  O   O37       1.0  0.8091710325943234  0.3583390708282449  0.21511167227254227  1.0000
  O   O38       1.0  0.8091710325943242  0.6416609291717543  0.7151116722725409  1.0000
  O   O39       1.0  0.30917103259432577  0.8583390708282445  0.21511167227254166  1.0000
  O   O40       1.0  0.3091710325943254  0.14166092917175457  0.7151116722725412  1.0000
  O   O41       1.0  0.5520657864165446  0.8468705056731932  0.6695199894772186  1.0000
  O   O42       1.0  0.5520657864165444  0.15312949432680711  0.169519989477218  1.0000
  O   O43       1.0  0.0520657864165456  0.34687050567319394  0.6695199894772178  1.0000
  O   O44       1.0  0.052065786416546175  0.6531294943268059  0.16951998947721822  1.0000
  O   O45       1.0  0.3941166282771413  0.6212261966487125  0.1584902485918126  1.0000
  O   O46       1.0  0.39411662827714156  0.3787738033512871  0.6584902485918112  1.0000
  O   O47       1.0  0.8941166282771424  0.12122619664871337  0.15849024859181257  1.0000
  O   O48       1.0  0.8941166282771422  0.8787738033512875  0.6584902485918118  1.0000
  O   O49       1.0  0.17041865659779565  0.18228457621625777  0.35731741438773373  1.0000
  O   O50       1.0  0.17041865659779631  0.8177154237837421  0.8573174143877338  1.0000
  O   O51       1.0  0.6704186565977954  0.6822845762162558  0.35731741438773396  1.0000
  O   O52       1.0  0.670418656597796  0.3177154237837424  0.8573174143877342  1.0000
  O   O53       1.0  0.5070667695222094  0.882949116925515  0.7999810305209997  1.0000
  O   O54       1.0  0.5070667695222099  0.11705088307448475  0.29998103052099956  1.0000
  O   O55       1.0  0.007066769522210602  0.3829491169255151  0.7999810305210001  1.0000
  O   O56       1.0  0.007066769522210949  0.6170508830744851  0.2999810305209998  1.0000
  O   O57       1.0  0.41964810363508814  0.47193896596417007  0.27840901407641544  1.0000
  O   O58       1.0  0.4196481036350879  0.5280610340358287  0.7784090140764145  1.0000
  O   O59       1.0  0.9196481036350892  0.9719389659641706  0.2784090140764153  1.0000
  O   O60       1.0  0.9196481036350872  0.028061034035830407  0.7784090140764146  1.0000
  O   O61       1.0  0.39772593889737246  0.9258722560861892  0.07961313235197462  1.0000
  O   O62       1.0  0.3977259388973721  0.07412774391381004  0.579613132351973  1.0000
  O   O63       1.0  0.8977259388973728  0.4258722560861896  0.07961313235197427  1.0000
  O   O64       1.0  0.8977259388973728  0.5741277439138126  0.579613132351973  1.0000
  O   O65       1.0  0.6522372368952876  0.6199384868891152  0.06427334591681237  1.0000
  O   O66       1.0  0.6522372368952872  0.38006151311088426  0.5642733459168118  1.0000
  O   O67       1.0  0.15223723689528756  0.1199384868891152  0.0642733459168122  1.0000
  O   O68       1.0  0.15223723689528468  0.880061513110883  0.5642733459168103  1.0000
  O   O69       1.0  0.6830506374401549  0.09577571752812553  0.4218752076465892  1.0000
  O   O70       1.0  0.6830506374401549  0.9042242824718727  0.9218752076465883  1.0000
  O   O71       1.0  0.18305063744015382  0.5957757175281265  0.4218752076465885  1.0000
  O   O72       1.0  0.18305063744015385  0.4042242824718734  0.9218752076465888  1.0000
  O   O73       1.0  0.5461882260073849  0.8519413663582978  0.40785251486022583  1.0000
  O   O74       1.0  0.5461882260073878  0.14805863364169966  0.9078525148602278  1.0000
  O   O75       1.0  0.0461882260073864  0.35194136635829887  0.4078525148602274  1.0000
  O   O76       1.0  0.04618822600738627  0.6480586336417005  0.9078525148602276  1.0000
  O   O77       1.0  0.3452896218644898  0.9973394883066087  0.4372114426252543  1.0000
  O   O78       1.0  0.3452896218644899  0.002660511693388302  0.9372114426252526  1.0000
  O   O79       1.0  0.8452896218644897  0.49733948830661134  0.4372114426252541  1.0000
  O   O80       1.0  0.8452896218644903  0.5026605116933885  0.9372114426252511  1.0000
  O   O81       1.0  0.7305791302640415  0.41990934569333527  0.08786672305760987  1.0000
  O   O82       1.0  0.7305791302640429  0.5800906543066632  0.587866723057612  1.0000
  O   O83       1.0  0.23057913026404325  0.9199093456933359  0.08786672305761008  1.0000
  O   O84       1.0  0.2305791302640435  0.08009065430666529  0.5878667230576118  1.0000
  Li  Li1       1.0  0.7478570997673151  0.7034748683218944  0.9474233437088108  1.0000
  Li  Li2       1.0  0.7478570997673174  0.29652513167810446  0.4474233437088129  1.0000
  Li  Li3       1.0  0.24785709976731715  0.20347486832189562  0.9474233437088124  1.0000
  Li  Li4       1.0  0.2478570997673178  0.7965251316781037  0.4474233437088135  1.0000
  Li  Li5       1.0  0.3667834510784889  0.43957846020471675  0.38288401339966055  1.0000
  Li  Li6       1.0  0.3667834510784895  0.5604215397952824  0.8828840133996602  1.0000
  Li  Li7       1.0  0.8667834510784874  0.9395784602047162  0.38288401339966  1.0000
  Li  Li8       1.0  0.8667834510784899  0.060421539795283113  0.882884013399659  1.0000
  Li  Li9       1.0  0.5648364795181209  0.1911710895010348  0.5304559541628618  1.0000
  Li  Li10      1.0  0.5648364795181214  0.808828910498965  0.03045595416286373  1.0000
  Li  Li11      1.0  0.06483647951812173  0.691171089501033  0.5304559541628631  1.0000
  Li  Li12      1.0  0.06483647951812203  0.3088289104989653  0.03045595416286173  1.0000
