data_image0
_chemical_formula_structural       Li6Ti12P18O72
_chemical_formula_sum              "Li6 Ti12 P18 O72"
_cell_length_a       8.970674615079561
_cell_length_b       8.97067461507956
_cell_length_c       23.949062726966694
_cell_angle_alpha    89.99999999999999
_cell_angle_beta     90.0
_cell_angle_gamma    120.00000000000001

_space_group_name_H-M_alt    "P 1"
_space_group_IT_number       1

loop_
  _space_group_symop_operation_xyz
  'x, y, z'

loop_
  _atom_site_type_symbol
  _atom_site_label
  _atom_site_symmetry_multiplicity
  _atom_site_fract_x
  _atom_site_fract_y
  _atom_site_fract_z
  _atom_site_occupancy
  Li  Li1       1.0  0.0  0.9999999999999999  0.4999999999999999  1.0000
  Li  Li2       1.0  0.0  3.85095516638468e-34  1.276424076215748e-16  1.0000
  Li  Li3       1.0  0.6666666666666657  0.33333333333333287  0.8333333333333325  1.0000
  Li  Li4       1.0  0.666666666666666  0.33333333333333315  0.3333333333333332  1.0000
  Li  Li5       1.0  0.33333333333333315  0.6666666666666665  0.16666666666666663  1.0000
  Li  Li6       1.0  0.3333333333333331  0.6666666666666663  0.6666666666666662  1.0000
  Ti  Ti1       1.0  1.6918912450607364e-17  0.0  0.38989264600368156  1.0000
  Ti  Ti2       1.0  1.4319503976270151e-16  0.9999999999999999  0.8898926460036821  1.0000
  Ti  Ti3       1.0  3.18162297101685e-17  4.622332842386738e-17  0.6101073539963181  1.0000
  Ti  Ti4       1.0  0.0  0.0  0.1101073539963181  1.0000
  Ti  Ti5       1.0  0.6666666666666659  0.3333333333333329  0.7232259793370144  1.0000
  Ti  Ti6       1.0  0.6666666666666662  0.3333333333333332  0.22322597933701524  1.0000
  Ti  Ti7       1.0  0.6666666666666657  0.3333333333333329  0.9434406873296514  1.0000
  Ti  Ti8       1.0  0.666666666666666  0.3333333333333331  0.44344068732965153  1.0000
  Ti  Ti9       1.0  0.3333333333333332  0.6666666666666666  0.056559312670348715  1.0000
  Ti  Ti10      1.0  0.3333333333333332  0.6666666666666663  0.5565593126703479  1.0000
  Ti  Ti11      1.0  0.3333333333333332  0.6666666666666666  0.27677402066298445  1.0000
  Ti  Ti12      1.0  0.3333333333333331  0.6666666666666662  0.776774020662984  1.0000
  P   P1        1.0  0.5065791945349014  0.5065791945349012  0.7500000000000003  1.0000
  P   P2        1.0  0.9999999999999999  0.4934208054650975  0.7500000000000003  1.0000
  P   P3        1.0  0.4934208054650986  0.0  0.7500000000000003  1.0000
  P   P4        1.0  0.5065791945349021  0.0  0.25  1.0000
  P   P5        1.0  0.493420805465098  0.49342080546509776  0.25  1.0000
  P   P6        1.0  0.9999999999999997  0.5065791945349016  0.25  1.0000
  P   P7        1.0  0.1732458612015684  0.8399125278682349  0.08333333333333341  1.0000
  P   P8        1.0  0.666666666666667  0.8267541387984322  0.08333333333333347  1.0000
  P   P9        1.0  0.16008747213176489  0.3333333333333333  0.08333333333333345  1.0000
  P   P10       1.0  0.17324586120156818  0.333333333333333  0.5833333333333335  1.0000
  P   P11       1.0  0.16008747213176489  0.8267541387984318  0.5833333333333334  1.0000
  P   P12       1.0  0.6666666666666663  0.839912527868235  0.5833333333333335  1.0000
  P   P13       1.0  0.8399125278682347  0.17324586120156799  0.41666666666666635  1.0000
  P   P14       1.0  0.3333333333333332  0.1600874721317651  0.41666666666666624  1.0000
  P   P15       1.0  0.8267541387984316  0.6666666666666664  0.41666666666666624  1.0000
  P   P16       1.0  0.8399125278682344  0.6666666666666662  0.9166666666666665  1.0000
  P   P17       1.0  0.8267541387984315  0.16008747213176489  0.9166666666666665  1.0000
  P   P18       1.0  0.3333333333333332  0.17324586120156796  0.9166666666666665  1.0000
  O   O1        1.0  0.8080451686016388  0.7715210735703195  0.8700370154075975  1.0000
  O   O2        1.0  0.9634759049686802  0.19195483139836086  0.8700370154075975  1.0000
  O   O3        1.0  0.2284789264296809  0.03652409503131967  0.8700370154075975  1.0000
  O   O4        1.0  0.808045168601639  0.0365240950313198  0.37003701540759815  1.0000
  O   O5        1.0  0.22847892642968046  0.1919548313983609  0.37003701540759815  1.0000
  O   O6        1.0  0.9634759049686805  0.7715210735703197  0.3700370154075981  1.0000
  O   O7        1.0  0.19195483139836098  0.22847892642968076  0.12996298459240188  1.0000
  O   O8        1.0  0.03652409503131944  0.8080451686016388  0.1299629845924019  1.0000
  O   O9        1.0  0.771521073570319  0.9634759049686806  0.1299629845924019  1.0000
  O   O10       1.0  0.19195483139836136  0.9634759049686805  0.6299629845924016  1.0000
  O   O11       1.0  0.7715210735703188  0.8080451686016384  0.6299629845924016  1.0000
  O   O12       1.0  0.03652409503131954  0.22847892642968057  0.6299629845924017  1.0000
  O   O13       1.0  0.47471183526830535  0.10485440690365241  0.2033703487409317  1.0000
  O   O14       1.0  0.6301425716353468  0.5252881647316946  0.2033703487409317  1.0000
  O   O15       1.0  0.8951455930963469  0.36985742836465324  0.20337034874093168  1.0000
  O   O16       1.0  0.47471183526830535  0.36985742836465296  0.7033703487409306  1.0000
  O   O17       1.0  0.8951455930963472  0.5252881647316944  0.7033703487409306  1.0000
  O   O18       1.0  0.6301425716353468  0.1048544069036523  0.7033703487409306  1.0000
  O   O19       1.0  0.8586214980650275  0.5618122597630139  0.4632963179257351  1.0000
  O   O20       1.0  0.703190761697986  0.1413785019349721  0.4632963179257352  1.0000
  O   O21       1.0  0.43818774023698537  0.2968092383020133  0.4632963179257352  1.0000
  O   O22       1.0  0.8586214980650269  0.29680923830201317  0.9632963179257349  1.0000
  O   O23       1.0  0.43818774023698565  0.14137850193497198  0.9632963179257349  1.0000
  O   O24       1.0  0.7031907616979857  0.5618122597630135  0.9632963179257349  1.0000
  O   O25       1.0  0.14137850193497212  0.43818774023698565  0.5367036820742641  1.0000
  O   O26       1.0  0.29680923830201356  0.8586214980650274  0.5367036820742641  1.0000
  O   O27       1.0  0.561812259763014  0.703190761697986  0.5367036820742642  1.0000
  O   O28       1.0  0.14137850193497195  0.7031907616979863  0.036703682074265005  1.0000
  O   O29       1.0  0.5618122597630139  0.858621498065028  0.036703682074265  1.0000
  O   O30       1.0  0.29680923830201345  0.4381877402369858  0.036703682074264984  1.0000
  O   O31       1.0  0.525288164731694  0.8951455930963472  0.7966296512590685  1.0000
  O   O32       1.0  0.3698574283646524  0.4747118352683052  0.7966296512590685  1.0000
  O   O33       1.0  0.10485440690365264  0.6301425716353477  0.7966296512590685  1.0000
  O   O34       1.0  0.525288164731695  0.630142571635348  0.2966296512590683  1.0000
  O   O35       1.0  0.10485440690365247  0.47471183526830535  0.2966296512590683  1.0000
  O   O36       1.0  0.3698574283646529  0.8951455930963476  0.2966296512590683  1.0000
  O   O37       1.0  0.17883018058091313  0.1799573344075459  0.5550300249616208  1.0000
  O   O38       1.0  0.001127153826632421  0.8211698194190858  0.5550300249616207  1.0000
  O   O39       1.0  0.8200426655924536  0.9988728461733671  0.5550300249616208  1.0000
  O   O40       1.0  0.17883018058091313  0.9988728461733671  0.055030024961621404  1.0000
  O   O41       1.0  0.8200426655924534  0.8211698194190862  0.055030024961621404  1.0000
  O   O42       1.0  0.0011271538266328651  0.17995733440754613  0.055030024961621404  1.0000
  O   O43       1.0  0.8211698194190866  0.8200426655924542  0.44496997503837865  1.0000
  O   O44       1.0  0.9988728461733669  0.17883018058091313  0.44496997503837876  1.0000
  O   O45       1.0  0.1799573344075462  0.001127153826632643  0.44496997503837865  1.0000
  O   O46       1.0  0.8211698194190858  0.001127153826632421  0.944969975038378  1.0000
  O   O47       1.0  0.17995733440754616  0.17883018058091313  0.944969975038378  1.0000
  O   O48       1.0  0.998872846173367  0.8200426655924536  0.944969975038378  1.0000
  O   O49       1.0  0.8454968472475793  0.513290667740879  0.888363358294954  1.0000
  O   O50       1.0  0.6677938204932992  0.15450315275241944  0.888363358294954  1.0000
  O   O51       1.0  0.4867093322591198  0.33220617950669995  0.888363358294954  1.0000
  O   O52       1.0  0.8454968472475792  0.3322061795067002  0.38836335829495433  1.0000
  O   O53       1.0  0.4867093322591204  0.15450315275241971  0.38836335829495433  1.0000
  O   O54       1.0  0.667793820493299  0.5132906677408792  0.38836335829495433  1.0000
  O   O55       1.0  0.48783648608575303  0.15337599892578688  0.7783033083717111  1.0000
  O   O56       1.0  0.6655395128400337  0.5121635139142466  0.7783033083717114  1.0000
  O   O57       1.0  0.8466240010742121  0.33446048715996585  0.7783033083717114  1.0000
  O   O58       1.0  0.4878364860857529  0.33446048715996596  0.2783033083717124  1.0000
  O   O59       1.0  0.846624001074213  0.5121635139142469  0.2783033083717124  1.0000
  O   O60       1.0  0.6655395128400333  0.15337599892578682  0.2783033083717124  1.0000
  O   O61       1.0  0.5121635139142463  0.8466240010742125  0.22169669162828798  1.0000
  O   O62       1.0  0.334460487159966  0.48783648608575314  0.22169669162828795  1.0000
  O   O63       1.0  0.153375998925787  0.6655395128400335  0.22169669162828798  1.0000
  O   O64       1.0  0.5121635139142462  0.6655395128400333  0.7216966916282888  1.0000
  O   O65       1.0  0.15337599892578682  0.4878364860857528  0.7216966916282888  1.0000
  O   O66       1.0  0.33446048715996557  0.8466240010742123  0.7216966916282888  1.0000
  O   O67       1.0  0.15450315275241985  0.4867093322591205  0.1116366417050456  1.0000
  O   O68       1.0  0.33220617950670045  0.8454968472475803  0.1116366417050456  1.0000
  O   O69       1.0  0.5132906677408793  0.6677938204932997  0.1116366417050456  1.0000
  O   O70       1.0  0.15450315275241994  0.6677938204932995  0.6116366417050452  1.0000
  O   O71       1.0  0.5132906677408797  0.8454968472475802  0.6116366417050451  1.0000
  O   O72       1.0  0.3322061795067003  0.4867093322591201  0.6116366417050452  1.0000
