data_image0
_chemical_formula_structural       Ge3AlGeAlGe4AlGeLi9O72P18
_chemical_formula_sum              "Ge9 Al3 Li9 O72 P18"
_cell_length_a       8.3858889804652
_cell_length_b       8.377125146241928
_cell_length_c       20.91145335992529
_cell_angle_alpha    89.86874628029065
_cell_angle_beta     90.22285462557258
_cell_angle_gamma    120.01740115362439

_space_group_name_H-M_alt    "P 1"
_space_group_IT_number       1

loop_
  _space_group_symop_operation_xyz
  'x, y, z'

loop_
  _atom_site_type_symbol
  _atom_site_label
  _atom_site_symmetry_multiplicity
  _atom_site_fract_x
  _atom_site_fract_y
  _atom_site_fract_z
  _atom_site_occupancy
  Ge  Ge1       1.0  7.347741609389999e-05  0.0022741233219873997  0.13961150553877102  1.0000
  Ge  Ge2       1.0  0.003312287014427229  0.0032955832006019165  0.3569015192353175  1.0000
  Ge  Ge3       1.0  0.9970604687326586  0.0001907888113792492  0.8620187822516686  1.0000
  Al  Al1       1.0  0.001112210089935474  0.9999389584621666  0.6457215505741845  1.0000
  Ge  Ge4       1.0  0.6663648482387495  0.33433965761900764  0.4699467964901702  1.0000
  Al  Al2       1.0  0.6726666677955511  0.3332723319729738  0.6852221087857728  1.0000
  Ge  Ge5       1.0  0.6674419002071741  0.3351525753090281  0.19161284316211552  1.0000
  Ge  Ge6       1.0  0.6669610829729204  0.3367520035838818  0.9730563823957467  1.0000
  Ge  Ge7       1.0  0.3271975469415955  0.6671242563632579  0.8099974202382122  1.0000
  Ge  Ge8       1.0  0.3307303464108955  0.6657071482694932  0.028743900067190204  1.0000
  Al  Al3       1.0  0.3324052021273082  0.6657563289642265  0.5186956646299618  1.0000
  Ge  Ge9       1.0  0.3341029057852569  0.6673904371402359  0.30526618683756673  1.0000
  Li  Li1       1.0  0.9968074436355239  0.006948551415333941  0.0016629832418176731  1.0000
  Li  Li2       1.0  0.8856585703117121  0.8515627824328269  0.48762176790966133  1.0000
  Li  Li3       1.0  0.6651692393956246  0.34233271353929834  0.3316761168332657  1.0000
  Li  Li4       1.0  0.3446954143559235  0.6792023378355805  0.16801527697382868  1.0000
  Li  Li5       1.0  0.5126586241803838  0.12620529681126108  0.8107615959502253  1.0000
  Li  Li6       1.0  0.6136875199075673  0.5362940140059725  0.7995804833919734  1.0000
  Li  Li7       1.0  0.30710944312884986  0.36087455208793445  0.610912897898124  1.0000
  Li  Li8       1.0  0.6390021182477815  0.944511965844174  0.6129736780633269  1.0000
  Li  Li9       1.0  0.14461404655944277  0.669027898190406  0.644489687359495  1.0000
  O   O1        1.0  0.18445416157762662  0.9923391375468344  0.18648646608718145  1.0000
  O   O2        1.0  0.00933637314849254  0.1957352311803958  0.18605534299514032  1.0000
  O   O3        1.0  0.8057976445869649  0.8175026896664069  0.18605285112947437  1.0000
  O   O4        1.0  0.9824202095696378  0.1803107539177646  0.3087136270916147  1.0000
  O   O5        1.0  0.19791435537927654  0.016530519946926125  0.3091992510992264  1.0000
  O   O6        1.0  0.8228188174350339  0.8062493581454447  0.308772372897259  1.0000
  O   O7        1.0  0.819463811319721  0.01798353529257247  0.8138364239413379  1.0000
  O   O8        1.0  0.9712912011608955  0.7933339119313104  0.8157004600596939  1.0000
  O   O9        1.0  0.20075410579966008  0.17098795833190053  0.8141314007668662  1.0000
  O   O10       1.0  0.05452740206218375  0.8462997737632502  0.6951687869161264  1.0000
  O   O11       1.0  0.7860525302910587  0.9440591693933158  0.6935954184757981  1.0000
  O   O12       1.0  0.1548248411007082  0.2170946540979031  0.6946921654511914  1.0000
  O   O13       1.0  0.8457907364978466  0.32052416750602947  0.519707186892882  1.0000
  O   O14       1.0  0.6954222040055619  0.5497826390975981  0.514099761470597  1.0000
  O   O15       1.0  0.4643865168220859  0.15938527436001385  0.5177215816003063  1.0000
  O   O16       1.0  0.5999220053370808  0.4710159014625961  0.6323297248611269  1.0000
  O   O17       1.0  0.8879040759845634  0.40805608903125906  0.6386424447511305  1.0000
  O   O18       1.0  0.5331092455640263  0.12235193325597929  0.6340404737930327  1.0000
  O   O19       1.0  0.48268211111251885  0.34047991273019573  0.14346076910625571  1.0000
  O   O20       1.0  0.6597031157339971  0.14288976917893859  0.14414069249916373  1.0000
  O   O21       1.0  0.858433525314952  0.5201219223627634  0.14400595791684445  1.0000
  O   O22       1.0  0.6749469342836839  0.15138261331989225  0.021008081652529507  1.0000
  O   O23       1.0  0.4700951191570788  0.323346464422912  0.020401829739546906  1.0000
  O   O24       1.0  0.8474890940431629  0.5320270917020447  0.021166585845141337  1.0000
  O   O25       1.0  0.5246295361459554  0.6729920334961625  0.8587809721354707  1.0000
  O   O26       1.0  0.33554776293675986  0.8689079237194535  0.8545185197448018  1.0000
  O   O27       1.0  0.14640988704650704  0.48647595205998445  0.85982033332453  1.0000
  O   O28       1.0  0.316702632429677  0.8429066011068548  0.977977600655083  1.0000
  O   O29       1.0  0.5295150669559163  0.6847154842857099  0.982123828999882  1.0000
  O   O30       1.0  0.15267801002966752  0.46771581335996654  0.9817819711512147  1.0000
  O   O31       1.0  0.14773160056927045  0.6613972734131321  0.4710075482711303  1.0000
  O   O32       1.0  0.3370736785695023  0.47792079378821584  0.4741242236511632  1.0000
  O   O33       1.0  0.5240399530119006  0.855536903751755  0.4748761237528663  1.0000
  O   O34       1.0  0.35469687551172374  0.4890143818905411  0.3514594074146579  1.0000
  O   O35       1.0  0.13086015515280444  0.6472372098059175  0.3485529680313569  1.0000
  O   O36       1.0  0.5116362944989004  0.8670283536523663  0.3520694325109775  1.0000
  O   O37       1.0  0.18312032081751975  0.16216536139323967  0.08005564371840769  1.0000
  O   O38       1.0  0.8383323182050278  0.02525042621846767  0.07992476650757513  1.0000
  O   O39       1.0  0.975906145575173  0.8190306582076179  0.08044914962502782  1.0000
  O   O40       1.0  0.1579654004127644  0.18924524738406318  0.41369094506734305  1.0000
  O   O41       1.0  0.028920286534538944  0.8384935319836224  0.41449227839729746  1.0000
  O   O42       1.0  0.8092462393709411  0.9614568916284946  0.4152649871506657  1.0000
  O   O43       1.0  0.8172781599924865  0.846528669166737  0.9231009678233526  1.0000
  O   O44       1.0  0.15424620979350573  0.9745406640851874  0.921932408669175  1.0000
  O   O45       1.0  0.02554272439939058  0.18594278361767383  0.9200159489978771  1.0000
  O   O46       1.0  0.8581173939238962  0.7972504079562298  0.5898237085635057  1.0000
  O   O47       1.0  0.923371526074142  0.13992880726870055  0.5935537335022671  1.0000
  O   O48       1.0  0.2202261902363586  0.08332549196092398  0.5962518578709597  1.0000
  O   O49       1.0  0.8466392767412034  0.4927519695506915  0.4097289564133746  1.0000
  O   O50       1.0  0.505831323103142  0.3516123141119952  0.4100370524934801  1.0000
  O   O51       1.0  0.6518453110068301  0.15349003293135446  0.41188027235905605  1.0000
  O   O52       1.0  0.8012496531548068  0.5406529081211483  0.7415228765231354  1.0000
  O   O53       1.0  0.7188222463463548  0.18623365714917678  0.7440649270014964  1.0000
  O   O54       1.0  0.4634876434432691  0.2718485935906987  0.7436283303084003  1.0000
  O   O55       1.0  0.48455087130350266  0.1737994861731559  0.24995883552507023  1.0000
  O   O56       1.0  0.8305518269140632  0.31578028841072037  0.24956195835510542  1.0000
  O   O57       1.0  0.6879549631724067  0.5183204928902426  0.24990044611357595  1.0000
  O   O58       1.0  0.5033665950207916  0.14692454705972768  0.9148409556229995  1.0000
  O   O59       1.0  0.6372286335474345  0.49747167558603256  0.9152720780098036  1.0000
  O   O60       1.0  0.8545716007815348  0.3633383190611646  0.9174825309908209  1.0000
  O   O61       1.0  0.5057088496853751  0.8515794777011286  0.7569857689833193  1.0000
  O   O62       1.0  0.14281435616794708  0.6531207014385744  0.7536906246195808  1.0000
  O   O63       1.0  0.35577815043977434  0.4917675111828067  0.7611283454872368  1.0000
  O   O64       1.0  0.48933645761787736  0.8551676231842579  0.08594326950248209  1.0000
  O   O65       1.0  0.3621896401121682  0.5102117466614173  0.08663926769837986  1.0000
  O   O66       1.0  0.1457404821583686  0.6412082426567918  0.08558181251023175  1.0000
  O   O67       1.0  0.15995537520288355  0.4781248069383672  0.5779517102723095  1.0000
  O   O68       1.0  0.5195757647241407  0.6783395713673727  0.5776481859224808  1.0000
  O   O69       1.0  0.3185333134101712  0.8444300248372877  0.5761899359013879  1.0000
  O   O70       1.0  0.17892846375805083  0.4808289052786369  0.24573130950992053  1.0000
  O   O71       1.0  0.30575941169875515  0.8256934274598077  0.24544072024083088  1.0000
  O   O72       1.0  0.5219041121215451  0.7003744623905265  0.24606820615340388  1.0000
  P   P1        1.0  0.28898520012481044  0.0015828195305075264  0.2479573537731269  1.0000
  P   P2        1.0  0.0009804376391375769  0.28988283908244183  0.24775135659404796  1.0000
  P   P3        1.0  0.7135287418767394  0.714881615305704  0.24794605745899226  1.0000
  P   P4        1.0  0.7136113184378508  0.000955055459469051  0.7513182626731361  1.0000
  P   P5        1.0  0.99259377516396  0.712027293319732  0.7520778643816636  1.0000
  P   P6        1.0  0.284709706577165  0.2821486851072028  0.752139632168099  1.0000
  P   P7        1.0  0.9502733884751435  0.3339233623926116  0.581790694854562  1.0000
  P   P8        1.0  0.6687521790457566  0.6203468982390022  0.5799955594831293  1.0000
  P   P9        1.0  0.38300360959330537  0.05293578217829451  0.5807785194442106  1.0000
  P   P10       1.0  0.3787810189451413  0.33394434261222206  0.08254007814831228  1.0000
  P   P11       1.0  0.6661442914704074  0.04806091303959856  0.08273869588569649  1.0000
  P   P12       1.0  0.9527068825101869  0.6237600592565183  0.08287083889223089  1.0000
  P   P13       1.0  0.6231587675471426  0.6742442966546806  0.92157098381105  1.0000
  P   P14       1.0  0.32689127248570726  0.9543463293639473  0.9194118017272608  1.0000
  P   P15       1.0  0.045470046400636885  0.3799486592556196  0.9201019520052367  1.0000
  P   P16       1.0  0.04506069089820042  0.6608110920362337  0.41161541344027075  1.0000
  P   P17       1.0  0.33583824117152483  0.3798261658940591  0.41323667887237403  1.0000
  P   P18       1.0  0.619796840018809  0.9550695091189859  0.41390636765548094  1.0000
