data_image0
_chemical_formula_structural       Fe12V24O84Li20
_chemical_formula_sum              "Fe12 V24 O84 Li20"
_cell_length_a       13.87553
_cell_length_b       8.376018
_cell_length_c       14.403454999999997
_cell_angle_alpha    90.0
_cell_angle_beta     95.873993
_cell_angle_gamma    90.0

_space_group_name_H-M_alt    "P 1"
_space_group_IT_number       1

loop_
  _space_group_symop_operation_xyz
  'x, y, z'

loop_
  _atom_site_type_symbol
  _atom_site_label
  _atom_site_symmetry_multiplicity
  _atom_site_fract_x
  _atom_site_fract_y
  _atom_site_fract_z
  _atom_site_occupancy
  Fe  Fe1       1.0  0.4980603330699492  0.8095839007090815  0.3742140353221592  1.0000
  Fe  Fe2       1.0  0.4980603330699485  0.19041609929091804  0.874214035322158  1.0000
  Fe  Fe3       1.0  0.9980603330699497  0.3095839007090823  0.3742140353221594  1.0000
  Fe  Fe4       1.0  0.9980603330699493  0.6904160992909184  0.8742140353221577  1.0000
  Fe  Fe5       1.0  0.8446517933971527  0.8057443420705909  0.5380016817362304  1.0000
  Fe  Fe6       1.0  0.8446517933971528  0.19425565792940924  0.03800168173623015  1.0000
  Fe  Fe7       1.0  0.34465179339715374  0.3057443420705907  0.5380016817362304  1.0000
  Fe  Fe8       1.0  0.3446517933971534  0.694255657929409  0.038001681736230135  1.0000
  Fe  Fe9       1.0  0.7170103594428866  0.31616225196462255  0.7118432310735093  1.0000
  Fe  Fe10      1.0  0.7170103594428865  0.6838377480353774  0.21184323107350925  1.0000
  Fe  Fe11      1.0  0.21701035944288655  0.8161622519646226  0.7118432310735098  1.0000
  Fe  Fe12      1.0  0.21701035944288655  0.18383774803537792  0.21184323107350939  1.0000
  V   V1        1.0  0.43984226892825373  0.04482915014457817  0.1706051075415055  1.0000
  V   V2        1.0  0.43984226892825357  0.9551708498554218  0.670605107541506  1.0000
  V   V3        1.0  0.9398422689282543  0.5448291501445782  0.1706051075415055  1.0000
  V   V4        1.0  0.9398422689282548  0.4551708498554219  0.6706051075415065  1.0000
  V   V5        1.0  0.6940507239305751  0.9605226082221747  0.35454539915715305  1.0000
  V   V6        1.0  0.6940507239305752  0.03947739177782673  0.8545453991571521  1.0000
  V   V7        1.0  0.194050723930575  0.46052260822217367  0.354545399157153  1.0000
  V   V8        1.0  0.1940507239305753  0.539477391777826  0.8545453991571523  1.0000
  V   V9        1.0  0.5691447941815289  0.45869846787966523  0.5100949780151364  1.0000
  V   V10       1.0  0.5691447941815289  0.5413015321203344  0.010094978015136244  1.0000
  V   V11       1.0  0.06914479418152913  0.958698467879665  0.5100949780151364  1.0000
  V   V12       1.0  0.06914479418152908  0.0413015321203349  0.010094978015136234  1.0000
  V   V13       1.0  0.6537006459736693  0.9602490679273307  0.5626996965664602  1.0000
  V   V14       1.0  0.6537006459736696  0.039750932072668985  0.06269969656646118  1.0000
  V   V15       1.0  0.15370064597367059  0.4602490679273308  0.5626996965664599  1.0000
  V   V16       1.0  0.15370064597367059  0.5397509320726686  0.06269969656646124  1.0000
  V   V17       1.0  0.27312363321874744  0.9606731623673298  0.4004875296965861  1.0000
  V   V18       1.0  0.2731236332187472  0.03932683763267038  0.9004875296965852  1.0000
  V   V19       1.0  0.7731236332187462  0.4606731623673297  0.40048752969658596  1.0000
  V   V20       1.0  0.7731236332187458  0.5393268376326701  0.900487529696585  1.0000
  V   V21       1.0  0.4051937002098786  0.462626292560579  0.2405134577844264  1.0000
  V   V22       1.0  0.4051937002098783  0.537373707439421  0.7405134577844257  1.0000
  V   V23       1.0  0.9051937002098792  0.9626262925605772  0.24051345778442645  1.0000
  V   V24       1.0  0.9051937002098792  0.037373707439420936  0.7405134577844261  1.0000
  O   O1        1.0  0.4732949224855658  0.32895944159514584  0.4798208579106722  1.0000
  O   O2        1.0  0.4732949224855662  0.6710405584048548  0.9798208579106724  1.0000
  O   O3        1.0  0.9732949224855642  0.8289594415951453  0.4798208579106722  1.0000
  O   O4        1.0  0.9732949224855644  0.17104055840485424  0.9798208579106727  1.0000
  O   O5        1.0  0.34059490734217607  0.16690673384209323  0.1426112604425416  1.0000
  O   O6        1.0  0.340594907342176  0.833093266157907  0.6426112604425406  1.0000
  O   O7        1.0  0.8405949073421758  0.6669067338420926  0.1426112604425418  1.0000
  O   O8        1.0  0.8405949073421752  0.33309326615790713  0.6426112604425407  1.0000
  O   O9        1.0  0.24477073776597566  0.9660993086379971  0.28019581939691296  1.0000
  O   O10       1.0  0.24477073776597574  0.03390069136200354  0.7801958193969133  1.0000
  O   O11       1.0  0.7447707377659767  0.46609930863799665  0.28019581939691274  1.0000
  O   O12       1.0  0.7447707377659767  0.5339006913620041  0.780195819396913  1.0000
  O   O13       1.0  0.3914554205760292  0.49677906476630995  0.12059535018492448  1.0000
  O   O14       1.0  0.391455420576029  0.50322093523369  0.6205953501849238  1.0000
  O   O15       1.0  0.8914554205760297  0.99677906476631  0.12059535018492452  1.0000
  O   O16       1.0  0.8914554205760299  0.0032209352336902888  0.6205953501849238  1.0000
  O   O17       1.0  0.42957408245017276  0.6573421721791922  0.2826800920932709  1.0000
  O   O18       1.0  0.42957408245017326  0.34265782782080856  0.782680092093271  1.0000
  O   O19       1.0  0.9295740824501748  0.15734217217919158  0.2826800920932703  1.0000
  O   O20       1.0  0.9295740824501746  0.8426578278208079  0.7826800920932708  1.0000
  O   O21       1.0  0.29723924922121636  0.14888859504682178  0.4403506921350331  1.0000
  O   O22       1.0  0.29723924922121636  0.851111404953178  0.9403506921350324  1.0000
  O   O23       1.0  0.7972392492212164  0.6488885950468217  0.44035069213503286  1.0000
  O   O24       1.0  0.7972392492212163  0.3511114049531781  0.9403506921350324  1.0000
  O   O25       1.0  0.5430645096506108  0.8814541780844476  0.6241963039467568  1.0000
  O   O26       1.0  0.5430645096506107  0.11854582191555245  0.12419630394675794  1.0000
  O   O27       1.0  0.04306450965061077  0.38145417808444776  0.6241963039467571  1.0000
  O   O28       1.0  0.043064509650610816  0.6185458219155523  0.12419630394675789  1.0000
  O   O29       1.0  0.6192377626046851  0.7947046155198096  0.29879036720001856  1.0000
  O   O30       1.0  0.6192377626046848  0.20529538448019022  0.7987903672000178  1.0000
  O   O31       1.0  0.11923776260468481  0.29470461551980975  0.29879036720001845  1.0000
  O   O32       1.0  0.11923776260468479  0.7052953844801901  0.7987903672000178  1.0000
  O   O33       1.0  0.5857558322880653  0.9735133054215258  0.4365469886958753  1.0000
  O   O34       1.0  0.585755832288065  0.026486694578472213  0.9365469886958737  1.0000
  O   O35       1.0  0.08575583228806506  0.4735133054215279  0.4365469886958753  1.0000
  O   O36       1.0  0.085755832288065  0.5264866945784729  0.9365469886958745  1.0000
  O   O37       1.0  0.6757423704194073  0.13749186140461114  0.30487565743477213  1.0000
  O   O38       1.0  0.6757423704194077  0.8625081385953884  0.8048756574347726  1.0000
  O   O39       1.0  0.17574237041940782  0.6374918614046118  0.30487565743477235  1.0000
  O   O40       1.0  0.175742370419408  0.3625081385953888  0.804875657434773  1.0000
  O   O41       1.0  0.6638165166969165  0.1448935680767888  0.6106581306138379  1.0000
  O   O42       1.0  0.6638165166969164  0.8551064319232115  0.11065813061383722  1.0000
  O   O43       1.0  0.16381651669691621  0.6448935680767887  0.6106581306138378  1.0000
  O   O44       1.0  0.16381651669691627  0.3551064319232112  0.1106581306138371  1.0000
  O   O45       1.0  0.67054100731498  0.38425447861989576  0.4533024416779353  1.0000
  O   O46       1.0  0.6705410073149802  0.6157455213801035  0.953302441677935  1.0000
  O   O47       1.0  0.1705410073149805  0.8842544786198967  0.45330244167793543  1.0000
  O   O48       1.0  0.17054100731498034  0.11574552138010445  0.953302441677935  1.0000
  O   O49       1.0  0.298332212732296  0.3880775608429648  0.2889747596227643  1.0000
  O   O50       1.0  0.2983322127322957  0.6119224391570373  0.7889747596227628  1.0000
  O   O51       1.0  0.7983322127322957  0.8880775608429626  0.288974759622764  1.0000
  O   O52       1.0  0.7983322127322953  0.11192243915703566  0.7889747596227629  1.0000
  O   O53       1.0  0.5016651961014392  0.34421236837255226  0.27102258163480775  1.0000
  O   O54       1.0  0.5016651961014393  0.6557876316274477  0.7710225816348079  1.0000
  O   O55       1.0  0.0016651961014394032  0.8442123683725521  0.271022581634808  1.0000
  O   O56       1.0  0.0016651961014393913  0.15578763162744758  0.7710225816348079  1.0000
  O   O57       1.0  0.45670734009238034  0.004846420842301706  0.29022102347045997  1.0000
  O   O58       1.0  0.45670734009238045  0.995153579157698  0.7902210234704611  1.0000
  O   O59       1.0  0.9567073400923792  0.5048464208423012  0.2902210234704599  1.0000
  O   O60       1.0  0.9567073400923791  0.49515357915769864  0.7902210234704612  1.0000
  O   O61       1.0  0.5415603667892853  0.6468181010510433  0.46969040682664703  1.0000
  O   O62       1.0  0.5415603667892852  0.35318189894895674  0.9696904068266452  1.0000
  O   O63       1.0  0.04156036678928538  0.14681810105104368  0.46969040682664703  1.0000
  O   O64       1.0  0.041560366789285166  0.8531818989489566  0.9696904068266452  1.0000
  O   O65       1.0  0.4141664055243085  0.8529492606754487  0.12544411443468212  1.0000
  O   O66       1.0  0.4141664055243088  0.1470507393245507  0.6254441144346827  1.0000
  O   O67       1.0  0.9141664055243094  0.3529492606754498  0.12544411443468206  1.0000
  O   O68       1.0  0.9141664055243097  0.6470507393245513  0.6254441144346824  1.0000
  O   O69       1.0  0.7648377726627313  0.9818782413145949  0.46961962987147393  1.0000
  O   O70       1.0  0.7648377726627319  0.018121758685404544  0.9696196298714753  1.0000
  O   O71       1.0  0.2648377726627317  0.48187824131459583  0.46961962987147393  1.0000
  O   O72       1.0  0.2648377726627319  0.5181217586854041  0.9696196298714753  1.0000
  O   O73       1.0  0.6019019691594848  0.45835971399771697  0.6293390465075024  1.0000
  O   O74       1.0  0.6019019691594852  0.5416402860022831  0.12933904650750302  1.0000
  O   O75       1.0  0.10190196915948473  0.9583597139977176  0.6293390465075023  1.0000
  O   O76       1.0  0.10190196915948485  0.04164028600228336  0.129339046507503  1.0000
  O   O77       1.0  0.3710747988450155  0.8350456750470064  0.43238618171343624  1.0000
  O   O78       1.0  0.3710747988450152  0.16495432495299314  0.9323861817134375  1.0000
  O   O79       1.0  0.8710747988450129  0.3350456750470066  0.43238618171343624  1.0000
  O   O80       1.0  0.8710747988450129  0.6649543249529932  0.9323861817134372  1.0000
  O   O81       1.0  0.7311672222280419  0.7931877144822369  0.6115202999056292  1.0000
  O   O82       1.0  0.7311672222280418  0.20681228551776398  0.11152029990562867  1.0000
  O   O83       1.0  0.23116722222804068  0.29318771448223674  0.6115202999056292  1.0000
  O   O84       1.0  0.23116722222804031  0.706812285517763  0.11152029990562864  1.0000
  Li  Li1       1.0  0.6157627005724294  0.6872254869314636  0.6931847168470512  1.0000
  Li  Li2       1.0  0.6157627005724288  0.31277451306853726  0.19318471684705102  1.0000
  Li  Li3       1.0  0.11576270057242899  0.1872254869314629  0.6931847168470513  1.0000
  Li  Li4       1.0  0.11576270057242878  0.8127745130685365  0.19318471684705082  1.0000
  Li  Li5       1.0  0.3354779123862182  0.31998736714222337  0.03393589232479507  1.0000
  Li  Li6       1.0  0.33547791238621905  0.6800126328577756  0.5339358923247949  1.0000
  Li  Li7       1.0  0.8354779123862195  0.8199873671422243  0.03393589232479507  1.0000
  Li  Li8       1.0  0.8354779123862199  0.18001263285777616  0.5339358923247949  1.0000
  Li  Li9       1.0  0.5192723774046354  0.1800817632369063  0.37505835058828646  1.0000
  Li  Li10      1.0  0.5192723774046353  0.8199182367630937  0.8750583505882853  1.0000
  Li  Li11      1.0  0.01927237740463565  0.6800817632369063  0.3750583505882863  1.0000
  Li  Li12      1.0  0.0192723774046357  0.31991823676309367  0.8750583505882855  1.0000
  Li  Li13      1.0  0.30957110368861357  0.7828730200536481  0.22343907018880577  1.0000
  Li  Li14      1.0  0.30957110368861357  0.21712697994635236  0.7234390701888067  1.0000
  Li  Li15      1.0  0.8095711036886134  0.28287302005364795  0.2234390701888059  1.0000
  Li  Li16      1.0  0.8095711036886136  0.7171269799463521  0.7234390701888067  1.0000
  Li  Li17      1.0  0.027826932040599023  0.22696178850213247  0.1818621501765126  1.0000
  Li  Li18      1.0  0.02782693204059908  0.7730382114978682  0.6818621501765132  1.0000
  Li  Li19      1.0  0.5278269320405994  0.7269617885021321  0.18186215017651275  1.0000
  Li  Li20      1.0  0.5278269320405994  0.2730382114978676  0.6818621501765134  1.0000
