data_image0
_chemical_formula_structural       Li11Ge12P18O72
_chemical_formula_sum              "LAGP"
_cell_length_a       8.275
_cell_length_b       8.275
_cell_length_c       20.512
_cell_angle_alpha    90.0
_cell_angle_beta     90.0
_cell_angle_gamma    119.99999999999999

_space_group_name_H-M_alt    "P 1"
_space_group_IT_number       1

loop_
  _space_group_symop_operation_xyz
  'x, y, z'

loop_
  _atom_site_type_symbol
  _atom_site_label
  _atom_site_symmetry_multiplicity
  _atom_site_fract_x
  _atom_site_fract_y
  _atom_site_fract_z
  _atom_site_occupancy
  Li  Li1       1.0  0.0  0.0  0.5  1.0000
  Li  Li1       1.0  0.05555555555555555  0.1111111111111111  0.5277777777777778  1.0000
  Li  Li1       1.0  0.1111111111111111  0.2222222222222222  0.5555555555555556  1.0000
  Li  Li1       1.0  0.16666666666666666  0.3333333333333333  0.5833333333333334  1.0000
  Li  Li1       1.0  0.2222222222222222  0.4444444444444444  0.6111111111111112  1.0000
  Li  Li1       1.0  0.27777777777777773  0.5555555555555555  0.638888888888889  1.0000
  Li  Li1       1.0  0.3333333333333333  0.6666666666666666  0.6666666666666666  1.0000
  Li  Li2       1.0  0.0  0.0  0.0  1.0000
  Li  Li3       1.0  0.6666666666666666  0.3333333333333333  0.8333333333333334  1.0000
  Li  Li4       1.0  0.6666666666666666  0.3333333333333333  0.3333333333333333  1.0000
  Li  Li5       1.0  0.3333333333333333  0.6666666666666666  0.16666666666666666  1.0000
  Ge  Ge1       1.0  0.0  0.0  0.35919  0.7500
  Ge  Ge2       1.0  0.0  0.0  0.85919  0.7500
  Ge  Ge3       1.0  0.0  0.0  0.64081  0.7500
  Ge  Ge4       1.0  0.0  0.0  0.14081  0.7500
  Ge  Ge5       1.0  0.6666666666666666  0.3333333333333333  0.6925233333333334  0.7500
  Ge  Ge6       1.0  0.6666666666666666  0.3333333333333333  0.19252333333333332  0.7500
  Ge  Ge7       1.0  0.6666666666666666  0.3333333333333333  0.9741433333333334  0.7500
  Ge  Ge8       1.0  0.6666666666666666  0.3333333333333333  0.4741433333333333  0.7500
  Ge  Ge9       1.0  0.3333333333333333  0.6666666666666666  0.025856666666666667  0.7500
  Ge  Ge10      1.0  0.3333333333333333  0.6666666666666666  0.5258566666666666  0.7500
  Ge  Ge11      1.0  0.3333333333333333  0.6666666666666666  0.3074766666666666  0.7500
  Ge  Ge12      1.0  0.3333333333333333  0.6666666666666666  0.8074766666666665  0.7500
  P   P1        1.0  0.2861  0.0  0.25  1.0000
  P   P2        1.0  0.7139  0.7138999999999999  0.25  1.0000
  P   P3        1.0  0.0  0.28609999999999997  0.25  1.0000
  P   P4        1.0  0.2861  0.28609999999999997  0.75  1.0000
  P   P5        1.0  0.0  0.7138999999999999  0.75  1.0000
  P   P6        1.0  0.7139  0.0  0.75  1.0000
  P   P7        1.0  0.9527666666666667  0.3333333333333333  0.5833333333333334  1.0000
  P   P8        1.0  0.3805666666666666  0.047233333333333294  0.5833333333333334  1.0000
  P   P9        1.0  0.6666666666666666  0.6194333333333332  0.5833333333333334  1.0000
  P   P10       1.0  0.9527666666666667  0.6194333333333332  0.08333333333333331  1.0000
  P   P11       1.0  0.6666666666666666  0.047233333333333294  0.08333333333333331  1.0000
  P   P12       1.0  0.3805666666666666  0.3333333333333333  0.08333333333333331  1.0000
  P   P13       1.0  0.6194333333333333  0.6666666666666666  0.9166666666666667  1.0000
  P   P14       1.0  0.0472333333333333  0.3805666666666666  0.9166666666666667  1.0000
  P   P15       1.0  0.33333333333333326  0.9527666666666665  0.9166666666666667  1.0000
  P   P16       1.0  0.6194333333333332  0.9527666666666665  0.4166666666666667  1.0000
  P   P17       1.0  0.3333333333333333  0.3805666666666666  0.4166666666666667  1.0000
  P   P18       1.0  0.04723333333333328  0.6666666666666666  0.4166666666666667  1.0000
  O   O1        1.0  0.20809999999999998  0.0215  0.31345999999999996  1.0000
  O   O2        1.0  0.8134  0.7918999999999999  0.31345999999999996  1.0000
  O   O3        1.0  0.9785  0.1866  0.31345999999999996  1.0000
  O   O4        1.0  0.20809999999999998  0.1866  0.81346  1.0000
  O   O5        1.0  0.9785  0.7918999999999999  0.81346  1.0000
  O   O6        1.0  0.8134  0.0215  0.81346  1.0000
  O   O7        1.0  0.7919  0.9784999999999999  0.68654  1.0000
  O   O8        1.0  0.1866  0.20809999999999998  0.68654  1.0000
  O   O9        1.0  0.02149999999999993  0.8133999999999999  0.68654  1.0000
  O   O10       1.0  0.7919  0.8133999999999999  0.18654  1.0000
  O   O11       1.0  0.021500000000000002  0.20809999999999998  0.18654  1.0000
  O   O12       1.0  0.1865999999999999  0.9784999999999999  0.18654  1.0000
  O   O13       1.0  0.8747666666666666  0.35483333333333333  0.6467933333333333  1.0000
  O   O14       1.0  0.48006666666666664  0.12523333333333334  0.6467933333333333  1.0000
  O   O15       1.0  0.6451666666666667  0.5199333333333332  0.6467933333333333  1.0000
  O   O16       1.0  0.8747666666666665  0.5199333333333332  0.1467933333333333  1.0000
  O   O17       1.0  0.6451666666666667  0.12523333333333334  0.1467933333333333  1.0000
  O   O18       1.0  0.48006666666666664  0.35483333333333333  0.1467933333333333  1.0000
  O   O19       1.0  0.4585666666666667  0.3118333333333333  0.01987333333333341  1.0000
  O   O20       1.0  0.8532666666666666  0.5414333333333333  0.01987333333333341  1.0000
  O   O21       1.0  0.6881666666666666  0.14673333333333333  0.01987333333333341  1.0000
  O   O22       1.0  0.4585666666666667  0.14673333333333333  0.5198733333333333  1.0000
  O   O23       1.0  0.6881666666666666  0.5414333333333333  0.5198733333333333  1.0000
  O   O24       1.0  0.8532666666666666  0.3118333333333333  0.5198733333333333  1.0000
  O   O25       1.0  0.5414333333333333  0.6881666666666666  0.9801266666666666  1.0000
  O   O26       1.0  0.1467333333333333  0.4585666666666666  0.9801266666666666  1.0000
  O   O27       1.0  0.3118333333333333  0.8532666666666666  0.9801266666666666  1.0000
  O   O28       1.0  0.5414333333333333  0.8532666666666666  0.4801266666666666  1.0000
  O   O29       1.0  0.3118333333333333  0.4585666666666666  0.4801266666666666  1.0000
  O   O30       1.0  0.14673333333333333  0.6881666666666666  0.4801266666666666  1.0000
  O   O31       1.0  0.12523333333333334  0.6451666666666667  0.35320666666666667  1.0000
  O   O32       1.0  0.5199333333333334  0.8747666666666666  0.35320666666666667  1.0000
  O   O33       1.0  0.35483333333333333  0.48006666666666664  0.35320666666666667  1.0000
  O   O34       1.0  0.12523333333333334  0.48006666666666664  0.8532066666666668  1.0000
  O   O35       1.0  0.35483333333333333  0.8747666666666666  0.8532066666666668  1.0000
  O   O36       1.0  0.5199333333333334  0.6451666666666667  0.8532066666666668  1.0000
  O   O37       1.0  0.02249999999999996  0.8436999999999999  0.41889  1.0000
  O   O38       1.0  0.8212  0.9775  0.41889  1.0000
  O   O39       1.0  0.15629999999999997  0.17879999999999996  0.41889  1.0000
  O   O40       1.0  0.022499999999999975  0.17879999999999996  0.91889  1.0000
  O   O41       1.0  0.1563  0.9775  0.91889  1.0000
  O   O42       1.0  0.8212  0.8436999999999999  0.91889  1.0000
  O   O43       1.0  0.9775000000000001  0.1563  0.58111  1.0000
  O   O44       1.0  0.1788  0.02249999999999999  0.58111  1.0000
  O   O45       1.0  0.8436999999999999  0.8211999999999999  0.58111  1.0000
  O   O46       1.0  0.9775000000000001  0.8211999999999999  0.08111  1.0000
  O   O47       1.0  0.8437  0.02249999999999999  0.08111  1.0000
  O   O48       1.0  0.1788  0.1563  0.08111  1.0000
  O   O49       1.0  0.6891666666666666  0.1770333333333333  0.7522233333333334  1.0000
  O   O50       1.0  0.48786666666666667  0.31083333333333324  0.7522233333333334  1.0000
  O   O51       1.0  0.8229666666666665  0.5121333333333332  0.7522233333333334  1.0000
  O   O52       1.0  0.6891666666666665  0.5121333333333332  0.2522233333333333  1.0000
  O   O53       1.0  0.8229666666666666  0.31083333333333324  0.2522233333333333  1.0000
  O   O54       1.0  0.48786666666666667  0.1770333333333333  0.2522233333333333  1.0000
  O   O55       1.0  0.6441666666666667  0.48963333333333325  0.9144433333333334  1.0000
  O   O56       1.0  0.8454666666666666  0.35583333333333333  0.9144433333333334  1.0000
  O   O57       1.0  0.5103666666666666  0.15453333333333333  0.9144433333333334  1.0000
  O   O58       1.0  0.6441666666666667  0.15453333333333333  0.4144433333333334  1.0000
  O   O59       1.0  0.5103666666666666  0.35583333333333333  0.4144433333333334  1.0000
  O   O60       1.0  0.8454666666666666  0.48963333333333325  0.4144433333333334  1.0000
  O   O61       1.0  0.3558333333333333  0.5103666666666666  0.08555666666666667  1.0000
  O   O62       1.0  0.15453333333333333  0.6441666666666667  0.08555666666666667  1.0000
  O   O63       1.0  0.48963333333333336  0.8454666666666666  0.08555666666666667  1.0000
  O   O64       1.0  0.3558333333333333  0.8454666666666666  0.5855566666666666  1.0000
  O   O65       1.0  0.48963333333333336  0.6441666666666667  0.5855566666666666  1.0000
  O   O66       1.0  0.15453333333333333  0.5103666666666666  0.5855566666666666  1.0000
  O   O67       1.0  0.3108333333333332  0.8229666666666665  0.24777666666666665  1.0000
  O   O68       1.0  0.5121333333333333  0.6891666666666666  0.24777666666666665  1.0000
  O   O69       1.0  0.17703333333333332  0.48786666666666667  0.24777666666666665  1.0000
  O   O70       1.0  0.31083333333333324  0.48786666666666667  0.7477766666666666  1.0000
  O   O71       1.0  0.17703333333333332  0.6891666666666666  0.7477766666666666  1.0000
  O   O72       1.0  0.5121333333333333  0.8229666666666665  0.7477766666666666  1.0000
  Al  Al1       1.0  0.0  0.0  0.35919  0.2500
  Al  Al2       1.0  0.0  0.0  0.85919  0.2500
  Al  Al3       1.0  0.0  0.0  0.64081  0.2500
  Al  Al4       1.0  0.0  0.0  0.14081  0.2500
  Al  Al5       1.0  0.6666666666666666  0.3333333333333333  0.6925233333333334  0.2500
  Al  Al6       1.0  0.6666666666666666  0.3333333333333333  0.19252333333333332  0.2500
  Al  Al7       1.0  0.6666666666666666  0.3333333333333333  0.9741433333333334  0.2500
  Al  Al8       1.0  0.6666666666666666  0.3333333333333333  0.4741433333333333  0.2500
  Al  Al9       1.0  0.3333333333333333  0.6666666666666666  0.025856666666666667  0.2500
  Al  Al10      1.0  0.3333333333333333  0.6666666666666666  0.5258566666666666  0.2500
  Al  Al11      1.0  0.3333333333333333  0.6666666666666666  0.3074766666666666  0.2500
  Al  Al12      1.0  0.3333333333333333  0.6666666666666666  0.8074766666666665  0.2500
