data_image0
_chemical_formula_structural       Fe12V24O84Li20
_chemical_formula_sum              "Fe12 V24 O84 Li20"
_cell_length_a       13.875530325317033
_cell_length_b       8.376017367885709
_cell_length_c       14.403454415265323
_cell_angle_alpha    89.70112726283703
_cell_angle_beta     95.87398977295321
_cell_angle_gamma    89.87685037564977

_space_group_name_H-M_alt    "P 1"
_space_group_IT_number       1

loop_
  _space_group_symop_operation_xyz
  'x, y, z'

loop_
  _atom_site_type_symbol
  _atom_site_label
  _atom_site_symmetry_multiplicity
  _atom_site_fract_x
  _atom_site_fract_y
  _atom_site_fract_z
  _atom_site_occupancy
  Fe  Fe1       1.0  0.5301064298711038  0.8058102780825296  0.3277486655917064  1.0000
  Fe  Fe2       1.0  0.5716968532430607  0.19216166517420805  0.830611579511608  1.0000
  Fe  Fe3       1.0  0.024900940334590116  0.30509996154437385  0.28572362206939644  1.0000
  Fe  Fe4       1.0  0.07881655891046974  0.6934971459144704  0.8724305854712784  1.0000
  Fe  Fe5       1.0  0.8912207449926876  0.8115679674553485  0.4610526952841672  1.0000
  Fe  Fe6       1.0  0.8423524224671256  0.19099804603188777  0.9678218650296224  1.0000
  Fe  Fe7       1.0  0.39341304734970356  0.31902105041433176  0.5059780721577823  1.0000
  Fe  Fe8       1.0  0.3459988220722337  0.6870807092716692  0.009263004706555908  1.0000
  Fe  Fe9       1.0  0.773657448706838  0.31508392931457985  0.6508450311478496  1.0000
  Fe  Fe10      1.0  0.7346252781700945  0.6813265869126347  0.15157651539364797  1.0000
  Fe  Fe11      1.0  0.27903789181011884  0.8121723173355315  0.6957174244516686  1.0000
  Fe  Fe12      1.0  0.2366309824564176  0.18135473765201843  0.192328113805502  1.0000
  V   V1        1.0  0.45268050393030407  0.038414218079909294  0.13371800341550863  1.0000
  V   V2        1.0  0.48674500062341153  0.9674420221189984  0.6355263326622484  1.0000
  V   V3        1.0  0.9494004318985519  0.5398357041849599  0.09121027720280872  1.0000
  V   V4        1.0  0.9857483583002439  0.460499687793953  0.594433632265078  1.0000
  V   V5        1.0  0.7252359151384141  0.957676028884969  0.2961005628622545  1.0000
  V   V6        1.0  0.7634707261674473  0.0397845482669756  0.7965916524105865  1.0000
  V   V7        1.0  0.23026734383529515  0.4566634900836287  0.3361124780731089  1.0000
  V   V8        1.0  0.2643452233223999  0.5331477040673605  0.8352437537765014  1.0000
  V   V9        1.0  0.6136113349545547  0.45786184508046757  0.46149559338166446  1.0000
  V   V10       1.0  0.5675456696403143  0.5382044319514216  0.962124536319756  1.0000
  V   V11       1.0  0.12262827782572999  0.9591933709331203  0.506399152213083  1.0000
  V   V12       1.0  0.07425996102321465  0.037355292254107324  0.004590082784209457  1.0000
  V   V13       1.0  0.6852201330318052  0.9504374826404196  0.5111072368468357  1.0000
  V   V14       1.0  0.6556885033515063  0.03330079086648809  0.004135497099261932  1.0000
  V   V15       1.0  0.18805150081228064  0.4508858022038595  0.5554084848520151  1.0000
  V   V16       1.0  0.16217389481457278  0.5339373336128217  0.04469741113005911  1.0000
  V   V17       1.0  0.3122575209604548  0.9655728786939053  0.38014672603973243  1.0000
  V   V18       1.0  0.3548643836274671  0.03397863376918038  0.8790835343739888  1.0000
  V   V19       1.0  0.8037765058680724  0.4590748704169474  0.33318452034486606  1.0000
  V   V20       1.0  0.8467174809703695  0.535081934980766  0.8354181083657884  1.0000
  V   V21       1.0  0.4255771455178243  0.4631680441159127  0.2053480283753478  1.0000
  V   V22       1.0  0.4678044441014536  0.5397643534086591  0.707017333924464  1.0000
  V   V23       1.0  0.9212019801458066  0.9628872087854307  0.16317800003388233  1.0000
  V   V24       1.0  0.9614167133982103  0.0403861963473865  0.6659081164226852  1.0000
  O   O1        1.0  0.5186040469086799  0.3215793873702375  0.4435539247175159  1.0000
  O   O2        1.0  0.5635127113608979  0.6750010526245693  0.9453581547548466  1.0000
  O   O3        1.0  0.024615127654248337  0.8201196116924674  0.3997632308125334  1.0000
  O   O4        1.0  0.06102187525705416  0.17620978286481356  0.9061966688680583  1.0000
  O   O5        1.0  0.35176753770658503  0.15573468039451252  0.11132616534893619  1.0000
  O   O6        1.0  0.38988024294711116  0.8457006799880953  0.6113727940278645  1.0000
  O   O7        1.0  0.8495827795853655  0.6607559782852365  0.0685436853243434  1.0000
  O   O8        1.0  0.8854055486410755  0.34552531038372614  0.5685133981568975  1.0000
  O   O9        1.0  0.27089797260899084  0.97170470316961  0.2636587298853898  1.0000
  O   O10       1.0  0.3122240596855716  0.03421596152906805  0.7627136259424684  1.0000
  O   O11       1.0  0.7621015669072209  0.46328791430666577  0.215843067321121  1.0000
  O   O12       1.0  0.8036676556685138  0.5364549877123775  0.7182241852116281  1.0000
  O   O13       1.0  0.40220420724860695  0.4921093160563379  0.08663813480738883  1.0000
  O   O14       1.0  0.44552379956368066  0.5075603814894184  0.5866170107829423  1.0000
  O   O15       1.0  0.8980122556168417  0.9923634378801657  0.044031362133758446  1.0000
  O   O16       1.0  0.942866524499152  0.013943661019504653  0.5482354341017686  1.0000
  O   O17       1.0  0.44779394102969505  0.6523581559615416  0.25102340637159476  1.0000
  O   O18       1.0  0.4911788677141089  0.3467897536693238  0.7503375722930667  1.0000
  O   O19       1.0  0.9433865208742455  0.1522681312959911  0.2072056982035113  1.0000
  O   O20       1.0  0.9837229555136807  0.8465172337353428  0.7087813744745766  1.0000
  O   O21       1.0  0.3373524848724321  0.152592241813137  0.4189564341405859  1.0000
  O   O22       1.0  0.38171760289432044  0.8462120195966999  0.9182116620074717  1.0000
  O   O23       1.0  0.8262935181760934  0.6448023949384065  0.36999255078151433  1.0000
  O   O24       1.0  0.8741844232152138  0.3466058529373072  0.8748785628472497  1.0000
  O   O25       1.0  0.5849071784070322  0.8904274080032486  0.5761133238835712  1.0000
  O   O26       1.0  0.5504241017361147  0.10952119621910232  0.07793235201578348  1.0000
  O   O27       1.0  0.09447843276319849  0.379348600031668  0.6218342813382453  1.0000
  O   O28       1.0  0.05491200081669374  0.6085950319229262  0.12076534918578027  1.0000
  O   O29       1.0  0.6420117728676032  0.7944066425720507  0.2496455624841952  1.0000
  O   O30       1.0  0.6802839420504775  0.1979225682992927  0.7441846292127657  1.0000
  O   O31       1.0  0.14783923109219965  0.294043851048597  0.2961777534971389  1.0000
  O   O32       1.0  0.18156136194263808  0.7100512199394999  0.7852503709048141  1.0000
  O   O33       1.0  0.6216415850543091  0.9694024396100932  0.39264200950099476  1.0000
  O   O34       1.0  0.6647827709158238  0.02563933803589805  0.8848922190751294  1.0000
  O   O35       1.0  0.13021605722848112  0.47061774682743324  0.43728353536964976  1.0000
  O   O36       1.0  0.16643007086831543  0.5289991002277937  0.9298413842906124  1.0000
  O   O37       1.0  0.695079664076313  0.13331405128391227  0.2486346481130454  1.0000
  O   O38       1.0  0.7454911461041017  0.8632277590348265  0.7493831888199158  1.0000
  O   O39       1.0  0.19779570382253428  0.6326446430415689  0.2908443587225425  1.0000
  O   O40       1.0  0.24707599040213543  0.35489125985032965  0.7822602646470305  1.0000
  O   O41       1.0  0.7116528958689802  0.13253408475487377  0.5526735973354732  1.0000
  O   O42       1.0  0.6690848320016193  0.8474896881246785  0.053540105767200044  1.0000
  O   O43       1.0  0.21747861862720255  0.6323788458444972  0.5960965974707935  1.0000
  O   O44       1.0  0.17257970243722356  0.3478733219797882  0.09547731461814467  1.0000
  O   O45       1.0  0.7047325275356318  0.3816692802332209  0.39481248640277955  1.0000
  O   O46       1.0  0.7504886502077642  0.6139309202931206  0.8970701080111637  1.0000
  O   O47       1.0  0.2163539977027764  0.8829797949513296  0.44080883317828107  1.0000
  O   O48       1.0  0.25852275803902847  0.11282509632077468  0.9405733864477229  1.0000
  O   O49       1.0  0.31776461717758875  0.3832475507737715  0.25228873904988974  1.0000
  O   O50       1.0  0.36691457830432495  0.6229366956280631  0.7582367151381412  1.0000
  O   O51       1.0  0.8154808793307288  0.8832858343822566  0.21475725143749785  1.0000
  O   O52       1.0  0.8556824168014654  0.12291174841462593  0.7183740444931935  1.0000
  O   O53       1.0  0.522226857825888  0.34262535629214286  0.22903442266969518  1.0000
  O   O54       1.0  0.567195756416132  0.6548108482034369  0.7302981104980313  1.0000
  O   O55       1.0  0.02660817825510101  0.8427470003620148  0.27276887681402573  1.0000
  O   O56       1.0  0.061015540005493474  0.15484977044899373  0.690727948692792  1.0000
  O   O57       1.0  0.48065928187270635  0.0020655895631683896  0.2526802367385133  1.0000
  O   O58       1.0  0.5206848958675419  0.9898358667920029  0.7521087848069751  1.0000
  O   O59       1.0  0.9784174849647201  0.5031329198394038  0.2102491224991466  1.0000
  O   O60       1.0  0.013119746604152827  0.48536402302294623  0.7121876524889708  1.0000
  O   O61       1.0  0.5794915747697396  0.6440597621306121  0.4231785595945603  1.0000
  O   O62       1.0  0.6221678411041893  0.3518514319512096  0.9222399685780438  1.0000
  O   O63       1.0  0.08353930415373474  0.14425597523049385  0.46589050863338294  1.0000
  O   O64       1.0  0.12652594611727688  0.8530418154209622  0.9668273458390155  1.0000
  O   O65       1.0  0.4224385504132734  0.847500517985074  0.09490384446158727  1.0000
  O   O66       1.0  0.4595104872385357  0.15977373589331775  0.5952251441819125  1.0000
  O   O67       1.0  0.9169156399701275  0.3479035352320921  0.050923081233829416  1.0000
  O   O68       1.0  0.960935812425614  0.6512217892181337  0.5548901904401563  1.0000
  O   O69       1.0  0.8069849557347367  0.9899928218198861  0.39791905081942636  1.0000
  O   O70       1.0  0.8479783230764274  0.016574103200279525  0.904440954798976  1.0000
  O   O71       1.0  0.3180826551762894  0.485049617907722  0.4345766923492  1.0000
  O   O72       1.0  0.3521228184518189  0.5161958451269121  0.9489694652824877  1.0000
  O   O73       1.0  0.6582733392269746  0.45416285780748594  0.5787605930065567  1.0000
  O   O74       1.0  0.6109253140466367  0.5352849238899373  0.07821211931118661  1.0000
  O   O75       1.0  0.1670639652761928  0.9560960999508376  0.623635933262372  1.0000
  O   O76       1.0  0.11798499662744805  0.027775097056023615  0.12023173302198589  1.0000
  O   O77       1.0  0.4110623761819833  0.8387605511546898  0.40122463799657293  1.0000
  O   O78       1.0  0.4551037177537277  0.15857119749697435  0.9005432693589819  1.0000
  O   O79       1.0  0.9063272323106739  0.33806432480428783  0.35706105882689815  1.0000
  O   O80       1.0  0.9434561545907812  0.6632496188644686  0.8556516615689674  1.0000
  O   O81       1.0  0.7678517845457017  0.8037980832185887  0.549685258599843  1.0000
  O   O82       1.0  0.7362826942753682  0.1990134700215367  0.049561560311669514  1.0000
  O   O83       1.0  0.2795613985187429  0.31074392959416075  0.5866060066425021  1.0000
  O   O84       1.0  0.2400435848364793  0.7046945959006466  0.09054529289844178  1.0000
  Li  Li1       1.0  0.6725578141494308  0.6668650372535774  0.6509719277227317  1.0000
  Li  Li2       1.0  0.626778247284376  0.30631755718173964  0.1427842907302913  1.0000
  Li  Li3       1.0  0.1768831641193196  0.16842012614297824  0.7031543224032754  1.0000
  Li  Li4       1.0  0.12963235809052015  0.8016965920234387  0.18564894376829097  1.0000
  Li  Li5       1.0  0.33910476989454813  0.31705835583692554  0.005720144368713502  1.0000
  Li  Li6       1.0  0.38036094629627143  0.6818521401778123  0.5027935036504361  1.0000
  Li  Li7       1.0  0.8394196117521981  0.816757210254067  0.9613583075517821  1.0000
  Li  Li8       1.0  0.8804407098310892  0.17760458362357193  0.4589555148624844  1.0000
  Li  Li9       1.0  0.5544749004737572  0.17751016355361102  0.32987619051427697  1.0000
  Li  Li10      1.0  0.591328493400093  0.8183320441131664  0.8316208759892766  1.0000
  Li  Li11      1.0  0.059100269715810665  0.6780733187631387  0.3738404055143403  1.0000
  Li  Li12      1.0  0.09134804707146471  0.3200130409310668  0.878125393645769  1.0000
  Li  Li13      1.0  0.32827523447258666  0.7852867696961595  0.1961549766021931  1.0000
  Li  Li14      1.0  0.0537351297855898  0.24920323558020335  0.14096345879564867  1.0000
  Li  Li15      1.0  0.8234969828028063  0.2842743175056421  0.15232225399224522  1.0000
  Li  Li16      1.0  0.5872264302097459  0.26573465326186485  0.6252782904709762  1.0000
  Li  Li17      1.0  0.09089100008237774  0.7748921035268119  0.6750697804979335  1.0000
  Li  Li18      1.0  0.8614290929750456  0.7313190759359963  0.6622828617555535  1.0000
  Li  Li19      1.0  0.5515825995375463  0.7478137293139637  0.10921444264041033  1.0000
  Li  Li20      1.0  0.35529926524074634  0.24717095452503177  0.7128904844400233  1.0000
