# generated using pymatgen
data_Li6PS5Cl
_symmetry_space_group_name_H-M   'P 1'
_cell_length_a   12.06153244
_cell_length_b   15.57137143
_cell_length_c   6.96372900
_cell_angle_alpha   116.56505118
_cell_angle_beta   90.00000000
_cell_angle_gamma   121.09093036
_symmetry_Int_Tables_number   1
_chemical_formula_structural   Li6PS5Cl
_chemical_formula_sum   'Li24 P4 S20 Cl4'
_cell_volume   955.14779924
_cell_formula_units_Z   4
loop_
 _symmetry_equiv_pos_site_id
 _symmetry_equiv_pos_as_xyz
  1  'x, y, z'
loop_
 _atom_type_symbol
 _atom_type_oxidation_number
  Li+  1.0
  P5+  5.0
  S2-  -2.0
  Cl-  -1.0
loop_
 _atom_site_type_symbol
 _atom_site_label
 _atom_site_symmetry_multiplicity
 _atom_site_fract_x
 _atom_site_fract_y
 _atom_site_fract_z
 _atom_site_occupancy
  Li+  Li0  1  0.02570003  0.18994999  0.18994999  1
  Li+  Li1  1  0.52570003  0.68994999  0.18994999  1
  Li+  Li2  1  0.52570003  0.18994999  0.68994999  1
  Li+  Li3  1  0.02570003  0.68995000  0.68994999  1
  Li+  Li4  1  0.32290002  0.33575004  0.63295003  1
  Li+  Li5  1  0.82290002  0.83575004  0.63295003  1
  Li+  Li6  1  0.82290002  0.33575004  0.13295003  1
  Li+  Li7  1  0.32290002  0.83575004  0.13295003  1
  Li+  Li8  1  0.17709998  0.48714999  0.63854994  1
  Li+  Li9  1  0.67709998  0.98714999  0.63854994  1
  Li+  Li10  1  0.67709998  0.48714999  0.13854994  1
  Li+  Li11  1  0.17709998  0.98714999  0.13854994  1
  Li+  Li12  1  0.47429997  0.48714999  0.63295003  1
  Li+  Li13  1  0.97429997  0.98714999  0.63295003  1
  Li+  Li14  1  0.97429997  0.48714999  0.13295003  1
  Li+  Li15  1  0.47429997  0.98714999  0.13295003  1
  Li+  Li16  1  0.32290002  0.33575004  0.03855004  1
  Li+  Li17  1  0.82290002  0.83575003  0.03855004  1
  Li+  Li18  1  0.82290002  0.33575003  0.53855004  1
  Li+  Li19  1  0.32290002  0.83575004  0.53855004  1
  Li+  Li20  1  0.32290002  0.48714999  0.18994999  1
  Li+  Li21  1  0.82290002  0.98714999  0.18994999  1
  Li+  Li22  1  0.82290002  0.48714999  0.68994999  1
  Li+  Li23  1  0.32290002  0.98714999  0.68994999  1
  P5+  P24  1  0.50000000  0.25000000  0.25000000  1.0
  P5+  P25  1  0.00000000  0.75000000  0.25000000  1.0
  P5+  P26  1  0.00000000  0.25000000  0.75000000  1.0
  P5+  P27  1  0.50000000  0.75000000  0.75000000  1.0
  S2-  S28  1  0.37940000  0.68970000  0.44850000  1.0
  S2-  S29  1  0.87940000  0.18970000  0.44850000  1.0
  S2-  S30  1  0.87940000  0.68970000  0.94850000  1.0
  S2-  S31  1  0.37940000  0.18970000  0.94850000  1.0
  S2-  S32  1  0.62060000  0.68970000  0.68970000  1.0
  S2-  S33  1  0.12060000  0.18970000  0.68970000  1.0
  S2-  S34  1  0.12060000  0.68970000  0.18970000  1.0
  S2-  S35  1  0.62060000  0.18970000  0.18970000  1.0
  S2-  S36  1  0.62060000  0.43090000  0.43090000  1.0
  S2-  S37  1  0.12060000  0.93090000  0.43090000  1.0
  S2-  S38  1  0.12060000  0.43090000  0.93090000  1.0
  S2-  S39  1  0.62060000  0.93090000  0.93090000  1.0
  S2-  S40  1  0.37940000  0.18970000  0.43090000  1.0
  S2-  S41  1  0.87940000  0.68970000  0.43090000  1.0
  S2-  S42  1  0.87940000  0.18970000  0.93090000  1.0
  S2-  S43  1  0.37940000  0.68970000  0.93090000  1.0
  S2-  S44  1  0.25000000  0.37500000  0.37500000  1
  S2-  S45  1  0.75000000  0.87500000  0.37500000  1
  S2-  S46  1  0.75000000  0.37500000  0.87500000  1
  S2-  S47  1  0.25000000  0.87500000  0.87500000  1
  Cl-  Cl48  1  0.00000000  0.00000000  0.00000000  1
  Cl-  Cl49  1  0.50000000  0.50000000  0.00000000  1
  Cl-  Cl50  1  0.50000000  0.00000000  0.50000000  1
  Cl-  Cl51  1  0.00000000  0.50000000  0.50000000  1
